@<TRIPOS>MOLECULE
157
   38    38     1     0     0
SMALL
No Charge or Current Charge


@<TRIPOS>ATOM
      1 C1           0.2540     0.1760     0.1690 c3         1 157      -0.069400
      2 C2          -0.3810    -0.3840     1.4640 c3         1 157      -0.079400
      3 C3           0.3240     0.1160     2.7440 c3         1 157      -0.074400
      4 C4          -0.3080    -0.4420     4.0420 c3         1 157      -0.178700
      5 C5           0.3880     0.0360     5.2950 c2         1 157       0.616200
      6 N6          -0.0360     1.2100     5.8000 nv         1 157      -1.046200
      7 N7           1.3080    -0.5970     5.8800 n2         1 157      -0.853100
      8 O8          -2.7650    -0.9200    -1.1150 o          1 157      -0.525100
      9 O9          -1.5370     0.1550    -4.0740 oh         1 157      -0.660000
     10 C10          0.3280     0.1730    -2.4270 c5         1 157      -0.059700
     11 C11          2.1750     0.0470    -4.0450 c5         1 157      -0.076400
     12 C12          1.8050    -0.3000    -2.5720 c5         1 157      -0.076400
     13 C13         -0.2310    -0.3370    -3.7890 c5         1 157       0.163300
     14 C14          0.8100     0.2670    -4.7640 c5         1 157      -0.112400
     15 C16         -0.3870    -0.3630    -1.1430 c3         1 157      -0.177700
     16 C15         -1.8970    -0.0530    -1.1710 c          1 157       0.595900
     17 H11          0.1880     1.2710     0.1810 hc         1 157       0.045200
     18 H12          1.3220    -0.0740     0.1790 hc         1 157       0.045200
     19 H21         -0.3440    -1.4810     1.4380 hc         1 157       0.046200
     20 H22         -1.4400    -0.1010     1.5110 hc         1 157       0.046200
     21 H31          0.2910     1.2130     2.7690 hc         1 157       0.045700
     22 H32          1.3830    -0.1700     2.7080 hc         1 157       0.045700
     23 H41         -0.2860    -1.5380     4.0040 hc         1 157       0.056700
     24 H42         -1.3700    -0.1670     4.0700 hc         1 157       0.056700
     25 HN61         0.2260     1.3290     6.7720 hn         1 157       0.469500
     26 HN62        -0.9980     1.4430     5.5830 hn         1 157       0.469500
     27 HN7          1.4890    -1.4590     5.3470 hn         1 157       0.384400
     28 H10          0.2800     1.2700    -2.3850 hc         1 157       0.065700
     29 H111         2.7970     0.9480    -4.1030 hc         1 157       0.045700
     30 H112         2.7510    -0.7640    -4.5060 hc         1 157       0.045700
     31 H121         2.4760     0.1950    -1.8610 hc         1 157       0.046200
     32 H122         1.8930    -1.3790    -2.3940 hc         1 157       0.046200
     33 H13         -0.2170    -1.4370    -3.8300 h1         1 157       0.035700
     34 H141         0.6290     1.3370    -4.9240 hc         1 157       0.053200
     35 H142         0.7810    -0.2120    -5.7500 hc         1 157       0.053200
     36 H16         -0.2970    -1.4560    -1.1270 hc         1 157       0.069700
     37 H15         -2.1650     1.0250    -1.2390 h4         1 157      -0.009800
     38 HO9         -1.7630    -0.1520    -4.9810 ho         1 157       0.450000
@<TRIPOS>BOND
     1     1     2 1   
     2     1    15 1   
     3     1    17 1   
     4     1    18 1   
     5     2     3 1   
     6     2    19 1   
     7     2    20 1   
     8     3     4 1   
     9     3    21 1   
    10     3    22 1   
    11     4     5 1   
    12     4    23 1   
    13     4    24 1   
    14     5     6 1   
    15     5     7 2   
    16     6    25 1   
    17     6    26 1   
    18     7    27 1   
    19     8    16 2   
    20     9    13 1   
    21     9    38 1   
    22    10    12 1   
    23    10    13 1   
    24    10    15 1   
    25    10    28 1   
    26    11    12 1   
    27    11    14 1   
    28    11    29 1   
    29    11    30 1   
    30    12    31 1   
    31    12    32 1   
    32    13    14 1   
    33    13    33 1   
    34    14    34 1   
    35    14    35 1   
    36    15    16 1   
    37    15    36 1   
    38    16    37 1   
@<TRIPOS>SUBSTRUCTURE
     1 157         1 TEMP              0 ****  ****    0 ROOT
