@<TRIPOS>MOLECULE
158
   23    22     1     0     0
SMALL
No Charge or Current Charge


@<TRIPOS>ATOM
      1 O13          0.6860     1.0150    -1.6420 o          1 158      -0.613100
      2 C5           0.0860    -0.0170    -1.3650 c          1 158       0.614100
      3 C6          -0.6410    -0.8990    -2.4030 c3         1 158      -0.025400
      4 S7          -0.5200    -0.2720    -4.1610 sh         1 158      -0.377800
      5 N4           0.0150    -0.4860    -0.0710 ns         1 158      -0.453900
      6 C3           0.6080     0.1940     1.0990 c3         1 158       0.031700
      7 C2           2.1430    -0.0650     1.1700 c          1 158       0.566100
      8 O8           2.6690    -1.0730     0.7070 o          1 158      -0.551100
      9 C1           2.9870     1.0240     1.8360 c3         1 158      -0.200100
     10 C9          -0.1220    -0.1930     2.4140 c3         1 158      -0.232400
     11 C10         -1.6140     0.1550     2.3330 c          1 158       0.717000
     12 O11         -1.9540     1.2850     2.6460 o          1 158      -0.724500
     13 O12         -2.3820    -0.6990     1.9200 o          1 158      -0.724500
     14 H61         -0.2120    -1.9070    -2.3530 h1         1 158       0.072700
     15 H62         -1.6980    -0.9600    -2.1160 h1         1 158       0.072700
     16 H7          -1.2450    -1.2650    -4.7290 hs         1 158       0.165800
     17 H4          -0.5070    -1.3420     0.0790 hn         1 158       0.326500
     18 H3           0.4870     1.2770     0.9580 h1         1 158       0.102700
     19 H11          4.0580     0.7910     1.8360 hc         1 158       0.055033
     20 H12A         2.7830     1.9820     1.3440 hc         1 158       0.055033
     21 H13          2.6130     1.2020     2.8500 hc         1 158       0.055033
     22 H91          0.0140    -1.2750     2.5360 hc         1 158       0.034200
     23 H92          0.3530     0.4000     3.2040 hc         1 158       0.034200
@<TRIPOS>BOND
     1     1     2 2   
     2     2     3 1   
     3     2     5 1   
     4     3     4 1   
     5     3    14 1   
     6     3    15 1   
     7     4    16 1   
     8     5     6 1   
     9     5    17 1   
    10     6     7 1   
    11     6    10 1   
    12     6    18 1   
    13     7     8 2   
    14     7     9 1   
    15     9    19 1   
    16     9    20 1   
    17     9    21 1   
    18    10    11 1   
    19    10    22 1   
    20    10    23 1   
    21    11    12 1   
    22    11    13 1   
@<TRIPOS>SUBSTRUCTURE
     1 158         1 TEMP              0 ****  ****    0 ROOT
