@<TRIPOS>MOLECULE
158
   23    22     1     0     0
SMALL
abcg2


@<TRIPOS>ATOM
      1 O13          0.8450     0.9350    -1.6000 o          1 158      -0.613100
      2 C5           0.1150    -0.0080    -1.3360 c          1 158       0.614100
      3 C6          -0.6190    -0.7820    -2.4120 c3         1 158      -0.025400
      4 S7          -0.0340    -0.2060    -4.0280 sh         1 158      -0.377800
      5 N4          -0.1160    -0.4270    -0.0880 ns         1 158      -0.453900
      6 C3           0.5120     0.2050     1.0440 c3         1 158       0.031700
      7 C2           2.0170    -0.0250     1.0410 c          1 158       0.566100
      8 O8           2.5130    -0.9890     0.5070 o          1 158      -0.551100
      9 C1           2.8290     1.0230     1.7460 c3         1 158      -0.200100
     10 C9          -0.0810    -0.3400     2.3390 c3         1 158      -0.232400
     11 C10         -1.5640     0.0460     2.5560 c          1 158       0.717000
     12 O11         -1.9330     1.1420     2.0970 o          1 158      -0.724500
     13 O12         -2.2440    -0.7650     3.2110 o          1 158      -0.724500
     14 H61         -0.4390    -1.8520    -2.2970 h1         1 158       0.072700
     15 H62         -1.6930    -0.6170    -2.3090 h1         1 158       0.072700
     16 H7          -0.7550    -1.0740    -4.7470 hs         1 158       0.165800
     17 H4          -0.6820    -1.2470     0.0650 hn         1 158       0.326500
     18 H3           0.3240     1.2820     1.0120 h1         1 158       0.102700
     19 H11          3.8260     0.6640     1.9890 hc         1 158       0.055033
     20 H12A         2.9190     1.8850     1.0800 hc         1 158       0.055033
     21 H13          2.3370     1.3800     2.6500 hc         1 158       0.055033
     22 H91          0.0470    -1.4250     2.3820 hc         1 158       0.034200
     23 H92          0.4830     0.0640     3.1860 hc         1 158       0.034200
@<TRIPOS>BOND
     1     1     2 2   
     2     2     3 1   
     3     2     5 1   
     4     3     4 1   
     5     3    14 1   
     6     3    15 1   
     7     4    16 1   
     8     5     6 1   
     9     5    17 1   
    10     6     7 1   
    11     6    10 1   
    12     6    18 1   
    13     7     8 2   
    14     7     9 1   
    15     9    19 1   
    16     9    20 1   
    17     9    21 1   
    18    10    11 1   
    19    10    22 1   
    20    10    23 1   
    21    11    12 1   
    22    11    13 1   
@<TRIPOS>SUBSTRUCTURE
     1 158         1 TEMP              0 ****  ****    0 ROOT
