@<TRIPOS>MOLECULE
159
   27    27     1     0     0
SMALL
bcc


@<TRIPOS>ATOM
      1 O5           0.3120    -2.0340     3.5410 o          1 159      -0.789300
      2 C12         -0.4160    -1.0430     3.5270 c          1 159       0.938200
      3 O4          -1.2730    -0.7400     4.4180 o          1 159      -0.789300
      4 C8          -0.3220    -0.0710     2.3770 ca         1 159      -0.304600
      5 C9          -1.1470     1.0770     2.3560 ca         1 159       0.275100
      6 C10         -1.0470     1.9810     1.2890 ca         1 159      -0.255000
      7 C11         -0.1540     1.7530     0.2640 ca         1 159       0.001000
      8 O3          -2.0030     1.3040     3.3320 oh         1 159      -0.580100
      9 C7           0.5680    -0.2850     1.3400 ca         1 159       0.041000
     10 C6           0.6550     0.6170     0.2890 ca         1 159      -0.416500
     11 S2           1.7550     0.2890    -1.0440 sy         1 159       1.299200
     12 O1           2.0100     1.5410    -1.7410 o          1 159      -0.628300
     13 O2           2.8670    -0.5060    -0.5480 o          1 159      -0.628300
     14 N1           0.9580    -0.6890    -2.1160 n7         1 159      -0.815100
     15 C5          -0.2700    -0.1940    -2.7270 c3         1 159       0.206800
     16 C4          -0.6120    -1.0800    -3.9130 c3         1 159       0.035700
     17 S1          -2.1610    -0.4700    -4.6540 sh         1 159      -0.412900
     18 H10         -1.6740     2.8630     1.2780 ha         1 159       0.129000
     19 H11         -0.0850     2.4630    -0.5480 ha         1 159       0.128000
     20 HO3         -1.8620     0.4930     3.9670 ho         1 159       0.519000
     21 H7           1.1980    -1.1650     1.3710 ha         1 159       0.158000
     22 H1           0.8650    -1.6300    -1.7470 hn         1 159       0.416800
     23 H51         -1.1020    -0.1750    -2.0140 h1         1 159       0.067700
     24 H52         -0.1020     0.8260    -3.0720 h1         1 159       0.067700
     25 H41          0.1920    -1.0480    -4.6470 h1         1 159       0.065200
     26 H42         -0.7510    -2.1120    -3.5890 h1         1 159       0.065200
     27 HS1         -2.2730    -1.4100    -5.5970 hs         1 159       0.204800
@<TRIPOS>BOND
     1     1     2 1   
     2     2     3 1   
     3     2     4 1   
     4     4     5 ar  
     5     4     9 ar  
     6     5     6 ar  
     7     5     8 1   
     8     6     7 ar  
     9     6    18 1   
    10     7    10 ar  
    11     7    19 1   
    12     8    20 1   
    13     9    10 ar  
    14     9    21 1   
    15    10    11 1   
    16    11    12 2   
    17    11    13 2   
    18    11    14 1   
    19    14    15 1   
    20    14    22 1   
    21    15    16 1   
    22    15    23 1   
    23    15    24 1   
    24    16    17 1   
    25    16    25 1   
    26    16    26 1   
    27    17    27 1   
@<TRIPOS>SUBSTRUCTURE
     1 159         1 TEMP              0 ****  ****    0 ROOT
