@<TRIPOS>MOLECULE
159
   27    27     1     0     0
SMALL
No Charge or Current Charge


@<TRIPOS>ATOM
      1 O5           0.7380    -2.2510     3.3430 o          1 159      -0.684000
      2 C12         -0.0300    -1.3380     3.6000 c          1 159       0.727600
      3 O4          -0.6770    -1.2720     4.6380 o          1 159      -0.684000
      4 C8          -0.1960    -0.2260     2.5940 ca         1 159      -0.304600
      5 C9          -1.0620     0.8620     2.8280 ca         1 159       0.275100
      6 C10         -1.2040     1.8830     1.8810 ca         1 159      -0.237000
      7 C11         -0.4860     1.8440     0.6800 ca         1 159       0.019000
      8 O3          -1.7760     0.9390     3.9780 oh         1 159      -0.619100
      9 C7           0.5270    -0.2640     1.3800 ca         1 159       0.059000
     10 C6           0.3830     0.7670     0.4300 ca         1 159      -0.416500
     11 S2           1.3080     0.6910    -1.1000 sy         1 159       1.157600
     12 O1           1.2800     2.0000    -1.7570 o          1 159      -0.557500
     13 O2           2.5360    -0.0820    -0.8970 o          1 159      -0.557500
     14 N1           0.2780    -0.2950    -1.9520 n7         1 159      -0.870300
     15 C5           0.2360    -0.1400    -3.4190 c3         1 159       0.206800
     16 C4          -0.7340    -1.1630    -4.0490 c3         1 159       0.083600
     17 S1          -0.8440    -1.0560    -5.9010 sh         1 159      -0.460800
     18 H10         -1.8770     2.7130     2.0800 ha         1 159       0.111000
     19 H11         -0.6090     2.6470    -0.0460 ha         1 159       0.110000
     20 HO3         -1.5100     0.1130     4.4750 ho         1 159       0.558000
     21 H7           1.2000    -1.0950     1.1700 ha         1 159       0.140000
     22 H1          -0.6180    -0.0440    -1.5390 hn         1 159       0.472000
     23 H51         -0.0870     0.8710    -3.7030 h1         1 159       0.067700
     24 H52          1.2340    -0.3010    -3.8510 h1         1 159       0.067700
     25 H41         -0.4080    -2.1760    -3.7820 h1         1 159       0.065200
     26 H42         -1.7390    -1.0100    -3.6360 h1         1 159       0.065200
     27 HS1         -1.7400    -2.0630    -6.0540 hs         1 159       0.204800
@<TRIPOS>BOND
     1     1     2 1   
     2     2     3 1   
     3     2     4 1   
     4     4     5 ar  
     5     4     9 ar  
     6     5     6 ar  
     7     5     8 1   
     8     6     7 ar  
     9     6    18 1   
    10     7    10 ar  
    11     7    19 1   
    12     8    20 1   
    13     9    10 ar  
    14     9    21 1   
    15    10    11 1   
    16    11    12 2   
    17    11    13 2   
    18    11    14 1   
    19    14    15 1   
    20    14    22 1   
    21    15    16 1   
    22    15    23 1   
    23    15    24 1   
    24    16    17 1   
    25    16    25 1   
    26    16    26 1   
    27    17    27 1   
@<TRIPOS>SUBSTRUCTURE
     1 159         1 TEMP              0 ****  ****    0 ROOT
