@<TRIPOS>MOLECULE
15A
   32    32     1     0     0
SMALL
abcg2


@<TRIPOS>ATOM
      1 O6           0.1710     3.2830     0.0550 oh         1 15A      -0.672000
      2 C6          -0.8380     2.4730     0.6190 c3         1 15A       0.154600
      3 C5          -0.9480     1.2110    -0.2200 c6         1 15A       0.237500
      4 C4          -2.0390     0.2850     0.3030 c6         1 15A       0.167300
      5 O4          -3.2720     0.9250     0.0880 oh         1 15A      -0.724000
      6 C3          -1.9590    -1.0360    -0.4480 c6         1 15A       0.141300
      7 O3          -3.0500    -1.8270    -0.0460 oh         1 15A      -0.649000
      8 C2          -0.6240    -1.7160    -0.1860 c6         1 15A       0.109000
      9 O2          -0.5860    -2.1350     1.1600 oh         1 15A      -0.699000
     10 N5           0.3380     0.5370    -0.2160 nu         1 15A      -0.934400
     11 C1           0.5450    -0.7850    -0.4510 c2         1 15A       0.602200
     12 N1           1.6530    -1.3460    -0.7540 n2         1 15A      -0.697900
     13 C7           2.8470    -0.5450    -0.8870 c3         1 15A       0.115800
     14 C8           3.5290    -0.3000     0.4590 c3         1 15A       0.134800
     15 N2           4.7520     0.4650     0.2710 n8         1 15A      -0.999200
     16 H6           0.3850     3.9810     0.6810 ho         1 15A       0.451000
     17 H6C1        -0.5980     2.1890     1.6510 h1         1 15A       0.041200
     18 H6C2        -1.8050     2.9870     0.6310 h1         1 15A       0.041200
     19 H5          -1.2230     1.4950    -1.2460 h1         1 15A       0.059700
     20 H4          -1.8720     0.1030     1.3750 h1         1 15A       0.072700
     21 HA           1.1140     1.1590    -0.3850 hn         1 15A       0.499000
     22 HB          -3.9680     0.2900     0.2890 ho         1 15A       0.527000
     23 H3          -2.0100    -0.8170    -1.5250 h1         1 15A       0.047700
     24 HC          -3.2290    -2.4820    -0.7270 ho         1 15A       0.452000
     25 H2          -0.5170    -2.5700    -0.8660 h1         1 15A       0.059700
     26 HD           0.2510    -2.5920     1.2950 ho         1 15A       0.517000
     27 H7C1         3.5470    -1.0850    -1.5320 h1         1 15A       0.046200
     28 H7C2         2.6790     0.4250    -1.3790 h1         1 15A       0.046200
     29 H8C1         2.8630     0.2730     1.1090 h1         1 15A       0.033700
     30 H8C2         3.6800    -1.2710     0.9500 h1         1 15A       0.033700
     31 H2N1         5.1630     0.6690     1.1730 hn         1 15A       0.393000
     32 H2N2         5.4330    -0.1050    -0.2150 hn         1 15A       0.393000
@<TRIPOS>BOND
     1     1     2 1   
     2     1    16 1   
     3     2     3 1   
     4     2    17 1   
     5     2    18 1   
     6     3     4 1   
     7     3    10 1   
     8     3    19 1   
     9     4     5 1   
    10     4     6 1   
    11     4    20 1   
    12     5    22 1   
    13     6     7 1   
    14     6     8 1   
    15     6    23 1   
    16     7    24 1   
    17     8     9 1   
    18     8    11 1   
    19     8    25 1   
    20     9    26 1   
    21    10    11 1   
    22    10    21 1   
    23    11    12 2   
    24    12    13 1   
    25    13    14 1   
    26    13    27 1   
    27    13    28 1   
    28    14    15 1   
    29    14    29 1   
    30    14    30 1   
    31    15    31 1   
    32    15    32 1   
@<TRIPOS>SUBSTRUCTURE
     1 15A         1 TEMP              0 ****  ****    0 ROOT
