@<TRIPOS>MOLECULE
15A
   32    32     1     0     0
SMALL
No Charge or Current Charge


@<TRIPOS>ATOM
      1 O6           0.2770     3.3740     0.1810 oh         1 15A      -0.672000
      2 C6          -0.8280     2.5440     0.6010 c3         1 15A       0.154600
      3 C5          -1.0000     1.2650    -0.2890 c6         1 15A       0.237500
      4 C4          -2.1130     0.3150     0.2610 c6         1 15A       0.167300
      5 O4          -3.4220     0.9140     0.1780 oh         1 15A      -0.724000
      6 C3          -2.1050    -1.0070    -0.5560 c6         1 15A       0.141300
      7 O3          -3.1830    -1.8650    -0.1410 oh         1 15A      -0.649000
      8 C2          -0.7560    -1.7610    -0.3780 c6         1 15A       0.109000
      9 O2          -0.7480    -2.4420     0.9120 oh         1 15A      -0.699000
     10 N5           0.2930     0.5520    -0.4290 nu         1 15A      -0.934400
     11 C1           0.4640    -0.8130    -0.5500 c2         1 15A       0.602200
     12 N1           1.6590    -1.2730    -0.6690 n2         1 15A      -0.697900
     13 C7           2.8960    -0.4730    -0.8430 c3         1 15A       0.115800
     14 C8           3.6620    -0.3360     0.5010 c3         1 15A       0.134800
     15 N2           4.9150     0.4440     0.3720 n8         1 15A      -0.999200
     16 H6           0.2950     4.1540     0.7800 ho         1 15A       0.451000
     17 H6C1        -0.6760     2.2200     1.6390 h1         1 15A       0.041200
     18 H6C2        -1.7650     3.1150     0.5700 h1         1 15A       0.041200
     19 H5          -1.3210     1.6050    -1.2850 h1         1 15A       0.059700
     20 H4          -1.8750     0.0740     1.3080 h1         1 15A       0.072700
     21 HA           1.1420     1.1050    -0.3720 hn         1 15A       0.499000
     22 HB          -4.0400     0.1430     0.1260 ho         1 15A       0.527000
     23 H3          -2.2190    -0.7540    -1.6210 h1         1 15A       0.047700
     24 HC          -2.7540    -2.4750     0.5070 ho         1 15A       0.452000
     25 H2          -0.6940    -2.5100    -1.1810 h1         1 15A       0.059700
     26 HD           0.1770    -2.7620     1.0490 ho         1 15A       0.517000
     27 H7C1         3.5510    -0.9630    -1.5750 h1         1 15A       0.046200
     28 H7C2         2.6900     0.5310    -1.2360 h1         1 15A       0.046200
     29 H8C1         3.0170     0.1630     1.2380 h1         1 15A       0.033700
     30 H8C2         3.9100    -1.3360     0.8850 h1         1 15A       0.033700
     31 H2N1         5.3970     0.4570     1.2810 hn         1 15A       0.393000
     32 H2N2         5.5670    -0.0660    -0.2360 hn         1 15A       0.393000
@<TRIPOS>BOND
     1     1     2 1   
     2     1    16 1   
     3     2     3 1   
     4     2    17 1   
     5     2    18 1   
     6     3     4 1   
     7     3    10 1   
     8     3    19 1   
     9     4     5 1   
    10     4     6 1   
    11     4    20 1   
    12     5    22 1   
    13     6     7 1   
    14     6     8 1   
    15     6    23 1   
    16     7    24 1   
    17     8     9 1   
    18     8    11 1   
    19     8    25 1   
    20     9    26 1   
    21    10    11 1   
    22    10    21 1   
    23    11    12 2   
    24    12    13 1   
    25    13    14 1   
    26    13    27 1   
    27    13    28 1   
    28    14    15 1   
    29    14    29 1   
    30    14    30 1   
    31    15    31 1   
    32    15    32 1   
@<TRIPOS>SUBSTRUCTURE
     1 15A         1 TEMP              0 ****  ****    0 ROOT
