@<TRIPOS>MOLECULE
15B
   74    76     1     0     0
SMALL
bcc


@<TRIPOS>ATOM
      1 C1          -0.8330     1.9480    -6.3960 c6         1 15B       0.314900
      2 O1          -1.6230     1.0190    -7.0690 os         1 15B      -0.312900
      3 C7          -1.1240    -0.2110    -7.3320 ca         1 15B       0.117100
      4 C8          -1.6270    -0.8530    -8.4550 ca         1 15B      -0.082000
      5 C9          -1.1710    -2.1260    -8.7450 ca         1 15B      -0.158200
      6 N14         -1.7060    -2.8040    -9.9230 no         1 15B       0.314200
      7 O15         -1.3180    -3.9230   -10.1550 o          1 15B      -0.200000
      8 O16         -2.5070    -2.2090   -10.6020 o          1 15B      -0.200000
      9 C10         -0.2290    -2.7790    -7.9680 ca         1 15B      -0.043000
     10 C11          0.2800    -2.1150    -6.8620 ca         1 15B      -0.129600
     11 C12         -0.1800    -0.8450    -6.5330 ca         1 15B      -0.130000
     12 C13          1.2820    -2.8300    -6.0030 c          1 15B       0.677700
     13 N18          2.1150    -2.0280    -5.3260 ns         1 15B      -0.559900
     14 C19          3.1790    -2.4790    -4.4570 c3         1 15B       0.106000
     15 C20          4.5530    -2.4760    -5.1330 c3         1 15B      -0.103400
     16 C21          4.7600    -1.3120    -6.1010 c3         1 15B       0.163800
     17 N22          4.2220    -0.0510    -5.6170 n3         1 15B      -0.744600
     18 C23          4.9150     0.4530    -4.4440 c6         1 15B       0.159800
     19 C24          4.2520     1.7180    -3.9360 c6         1 15B       0.171300
     20 N25          4.2160     2.7300    -4.9690 n3         1 15B      -0.730600
     21 C28          3.6710     3.9970    -4.5220 c3         1 15B       0.182800
     22 C35          4.5270     4.7010    -3.4780 c3         1 15B      -0.116400
     23 C36          5.9530     4.9720    -3.9510 c3         1 15B       0.142800
     24 N37          6.7950     5.6880    -3.0050 n8         1 15B      -0.875800
     25 C26          3.5520     2.2280    -6.1490 c6         1 15B       0.171300
     26 C27          4.2170     0.9640    -6.6550 c6         1 15B       0.159800
     27 O17          1.2960    -4.0500    -5.9440 o          1 15B      -0.587100
     28 C2          -1.3510     3.3420    -6.7420 c6         1 15B       0.083100
     29 O2          -1.1270     3.6460    -8.0920 oh         1 15B      -0.595800
     30 C3          -0.5980     4.3760    -5.9040 c6         1 15B       0.123100
     31 O3          -1.1080     5.6650    -6.0830 oh         1 15B      -0.567800
     32 C4          -0.6540     4.0240    -4.4150 c6         1 15B       0.135100
     33 O4          -1.9200     4.2140    -3.8410 oh         1 15B      -0.564800
     34 C5          -0.1440     2.5950    -4.2510 c6         1 15B       0.065100
     35 C6          -0.1330     2.1140    -2.8150 c3         1 15B       0.152400
     36 O6           0.5160     0.8710    -2.6350 oh         1 15B      -0.593800
     37 O5          -0.9410     1.7040    -5.0210 os         1 15B      -0.431600
     38 H1           0.2210     1.8520    -6.7190 h2         1 15B       0.043700
     39 H2          -2.4220     3.3830    -6.4950 h1         1 15B       0.071700
     40 HO2         -1.8150     3.2370    -8.6260 ho         1 15B       0.429000
     41 H3           0.4650     4.3280    -6.1990 h1         1 15B       0.038700
     42 HO3         -1.0430     5.8870    -7.0180 ho         1 15B       0.423000
     43 H4           0.0270     4.6940    -3.8800 h1         1 15B       0.096700
     44 HO4         -2.5380     3.5640    -4.1910 ho         1 15B       0.415000
     45 H5           0.8930     2.5750    -4.6250 h1         1 15B       0.042700
     46 H61         -1.1580     2.0380    -2.4420 h1         1 15B       0.062200
     47 H62          0.3740     2.8780    -2.2160 h1         1 15B       0.062200
     48 HO6          0.8670     0.5490    -3.4670 ho         1 15B       0.408000
     49 H8          -2.3610    -0.3560    -9.0730 ha         1 15B       0.182000
     50 H10          0.1110    -3.7760    -8.2070 ha         1 15B       0.194000
     51 H12          0.1470    -0.3760    -5.6160 ha         1 15B       0.158000
     52 H18          2.2080    -1.0560    -5.5920 hn         1 15B       0.329500
     53 H191         3.1870    -1.8160    -3.5900 h1         1 15B       0.059700
     54 H192         2.9390    -3.4730    -4.0850 h1         1 15B       0.059700
     55 H201         5.3140    -2.4760    -4.3480 hc         1 15B       0.054200
     56 H202         4.6960    -3.4010    -5.6950 hc         1 15B       0.054200
     57 H211         5.8300    -1.2340    -6.3500 h1         1 15B       0.037700
     58 H212         4.2470    -1.5440    -7.0390 h1         1 15B       0.037700
     59 H231         5.9750     0.6630    -4.6630 h1         1 15B       0.044950
     60 H232         4.8930    -0.2960    -3.6510 h1         1 15B       0.044950
     61 H241         3.2390     1.4730    -3.5650 h1         1 15B       0.032450
     62 H242         4.8190     2.0820    -3.0780 h1         1 15B       0.032450
     63 H261         3.5750     2.9900    -6.9320 h1         1 15B       0.032450
     64 H262         2.4840     2.0010    -5.9610 h1         1 15B       0.032450
     65 H271         3.6620     0.5930    -7.5200 h1         1 15B       0.044950
     66 H272         5.2370     1.2020    -6.9990 h1         1 15B       0.044950
     67 H281         2.6460     3.8820    -4.1230 h1         1 15B       0.025700
     68 H282         3.5870     4.6490    -5.3970 h1         1 15B       0.025700
     69 H351         4.5540     4.1300    -2.5450 hc         1 15B       0.039700
     70 H352         4.0380     5.6490    -3.2350 hc         1 15B       0.039700
     71 H361         5.9160     5.5470    -4.8820 h1         1 15B       0.060700
     72 H362         6.4390     4.0270    -4.2010 h1         1 15B       0.060700
     73 H371         6.8700     5.1500    -2.1500 hn         1 15B       0.332800
     74 H372         6.3400     6.5530    -2.7390 hn         1 15B       0.332800
@<TRIPOS>BOND
     1     1     2 1   
     2     1    28 1   
     3     1    37 1   
     4     1    38 1   
     5     2     3 1   
     6     3     4 ar  
     7     3    11 ar  
     8     4     5 ar  
     9     4    49 1   
    10     5     6 1   
    11     5     9 ar  
    12     6     7 1   
    13     6     8 1   
    14     9    10 ar  
    15     9    50 1   
    16    10    11 ar  
    17    10    12 1   
    18    11    51 1   
    19    12    13 1   
    20    12    27 2   
    21    13    14 1   
    22    13    52 1   
    23    14    15 1   
    24    14    53 1   
    25    14    54 1   
    26    15    16 1   
    27    15    55 1   
    28    15    56 1   
    29    16    17 1   
    30    16    57 1   
    31    16    58 1   
    32    17    18 1   
    33    17    26 1   
    34    18    19 1   
    35    18    59 1   
    36    18    60 1   
    37    19    20 1   
    38    19    61 1   
    39    19    62 1   
    40    20    21 1   
    41    20    25 1   
    42    21    22 1   
    43    21    67 1   
    44    21    68 1   
    45    22    23 1   
    46    22    69 1   
    47    22    70 1   
    48    23    24 1   
    49    23    71 1   
    50    23    72 1   
    51    24    73 1   
    52    24    74 1   
    53    25    26 1   
    54    25    63 1   
    55    25    64 1   
    56    26    65 1   
    57    26    66 1   
    58    28    29 1   
    59    28    30 1   
    60    28    39 1   
    61    29    40 1   
    62    30    31 1   
    63    30    32 1   
    64    30    41 1   
    65    31    42 1   
    66    32    33 1   
    67    32    34 1   
    68    32    43 1   
    69    33    44 1   
    70    34    35 1   
    71    34    37 1   
    72    34    45 1   
    73    35    36 1   
    74    35    46 1   
    75    35    47 1   
    76    36    48 1   
@<TRIPOS>SUBSTRUCTURE
     1 15B         1 TEMP              0 ****  ****    0 ROOT
