@<TRIPOS>MOLECULE
15B
   74    76     1     0     0
SMALL
No Charge or Current Charge


@<TRIPOS>ATOM
      1 C1          -0.5120     1.9630    -6.6060 c6         1 15B       0.361300
      2 O1          -1.2180     1.1010    -7.5180 os         1 15B      -0.336100
      3 C7          -0.9750    -0.2620    -7.5570 ca         1 15B       0.117100
      4 C8          -1.7990    -1.0420    -8.3820 ca         1 15B      -0.064000
      5 C9          -1.6120    -2.4400    -8.4760 ca         1 15B      -0.158200
      6 N14         -2.4980    -3.2670    -9.3580 no         1 15B       0.694200
      7 O15         -2.2990    -4.4880    -9.4090 o          1 15B      -0.390000
      8 O16         -3.3890    -2.6920    -9.9970 o          1 15B      -0.390000
      9 C10         -0.5790    -3.0490    -7.7250 ca         1 15B      -0.025000
     10 C11          0.2650    -2.2800    -6.8920 ca         1 15B      -0.129600
     11 C12          0.0590    -0.8790    -6.8180 ca         1 15B      -0.112000
     12 C13          1.3590    -2.9740    -6.1020 c          1 15B       0.610700
     13 N18          2.1480    -2.1640    -5.3200 ns         1 15B      -0.492900
     14 C19          3.3230    -2.5840    -4.5600 c3         1 15B       0.106000
     15 C20          4.6390    -2.4080    -5.3520 c3         1 15B      -0.103400
     16 C21          4.7010    -1.1740    -6.2910 c3         1 15B       0.163800
     17 N22          4.1900     0.0990    -5.7240 n3         1 15B      -0.744600
     18 C23          4.9320     0.5740    -4.5140 c6         1 15B       0.159800
     19 C24          4.3260     1.8930    -3.9340 c6         1 15B       0.171300
     20 N25          4.2700     2.9950    -4.9480 n3         1 15B      -0.730600
     21 C28          3.6990     4.2620    -4.4300 c3         1 15B       0.182800
     22 C35          4.5060     4.9310    -3.2940 c3         1 15B      -0.116400
     23 C36          5.9660     5.2340    -3.6830 c3         1 15B       0.142800
     24 N37          6.6770     5.9290    -2.5880 n8         1 15B      -0.986200
     25 C26          3.5620     2.5190    -6.1740 c6         1 15B       0.171300
     26 C27          4.1550     1.1920    -6.7420 c6         1 15B       0.159800
     27 O17          1.5340    -4.1850    -6.1490 o          1 15B      -0.587100
     28 C2          -0.8390     3.4630    -6.9030 c6         1 15B       0.106300
     29 O2          -0.4620     3.8650    -8.2440 oh         1 15B      -0.718000
     30 C3          -0.1210     4.3560    -5.8430 c6         1 15B       0.146300
     31 O3          -0.4190     5.7400    -6.0900 oh         1 15B      -0.630000
     32 C4          -0.5030     3.9100    -4.3870 c6         1 15B       0.158300
     33 O4          -1.9130     4.1130    -4.1350 oh         1 15B      -0.687000
     34 C5          -0.1520     2.3960    -4.2530 c6         1 15B       0.088300
     35 C6          -0.4730     1.7880    -2.8540 c3         1 15B       0.175600
     36 O6          -0.4890     0.3550    -2.9260 oh         1 15B      -0.716000
     37 O5          -0.8910     1.6380    -5.2470 os         1 15B      -0.478000
     38 H1           0.5680     1.8120    -6.7370 h2         1 15B       0.043700
     39 H2          -1.9260     3.5880    -6.7790 h1         1 15B       0.071700
     40 HO2         -0.8870     3.2240    -8.8660 ho         1 15B       0.528000
     41 H3           0.9620     4.2040    -5.9620 h1         1 15B       0.038700
     42 HO3         -0.4660     5.8100    -7.0710 ho         1 15B       0.462000
     43 H4           0.1060     4.4860    -3.6730 h1         1 15B       0.096700
     44 HO4         -2.3750     3.3370    -4.5270 ho         1 15B       0.514000
     45 H5           0.9240     2.2530    -4.4300 h1         1 15B       0.042700
     46 H61         -1.4510     2.1560    -2.5140 h1         1 15B       0.062200
     47 H62          0.2790     2.1370    -2.1320 h1         1 15B       0.062200
     48 HO6         -0.8380     0.1700    -3.8310 ho         1 15B       0.507000
     49 H8          -2.5860    -0.5460    -8.9460 ha         1 15B       0.164000
     50 H10         -0.4250    -4.1260    -7.7860 ha         1 15B       0.176000
     51 H12          0.6990    -0.2730    -6.1880 ha         1 15B       0.140000
     52 H18          1.9940    -1.1680    -5.3930 hn         1 15B       0.329500
     53 H191         3.3680    -1.9620    -3.6560 h1         1 15B       0.059700
     54 H192         3.2150    -3.6280    -4.2360 h1         1 15B       0.059700
     55 H201         5.4740    -2.3720    -4.6430 hc         1 15B       0.054200
     56 H202         4.7980    -3.3020    -5.9670 hc         1 15B       0.054200
     57 H211         5.7390    -1.0470    -6.6270 h1         1 15B       0.037700
     58 H212         4.1120    -1.4190    -7.1860 h1         1 15B       0.037700
     59 H231         5.9880     0.7540    -4.7640 h1         1 15B       0.044950
     60 H232         4.9150    -0.1870    -3.7220 h1         1 15B       0.044950
     61 H241         3.3160     1.6770    -3.5560 h1         1 15B       0.032450
     62 H242         4.9360     2.1930    -3.0710 h1         1 15B       0.032450
     63 H261         3.6060     3.2870    -6.9590 h1         1 15B       0.032450
     64 H262         2.5010     2.3510    -5.9500 h1         1 15B       0.032450
     65 H271         3.5510     0.8850    -7.6090 h1         1 15B       0.044950
     66 H272         5.1700     1.3950    -7.1140 h1         1 15B       0.044950
     67 H281         2.6760     4.0870    -4.0710 h1         1 15B       0.025700
     68 H282         3.6270     4.9860    -5.2530 h1         1 15B       0.025700
     69 H351         4.4810     4.2980    -2.3990 hc         1 15B       0.039700
     70 H352         4.0020     5.8670    -3.0260 hc         1 15B       0.039700
     71 H361         5.9840     5.8680    -4.5820 h1         1 15B       0.060700
     72 H362         6.4910     4.2960    -3.9150 h1         1 15B       0.060700
     73 H371         6.6200     5.3540    -1.7390 hn         1 15B       0.388000
     74 H372         6.1570     6.7780    -2.3390 hn         1 15B       0.388000
@<TRIPOS>BOND
     1     1     2 1   
     2     1    28 1   
     3     1    37 1   
     4     1    38 1   
     5     2     3 1   
     6     3     4 ar  
     7     3    11 ar  
     8     4     5 ar  
     9     4    49 1   
    10     5     6 1   
    11     5     9 ar  
    12     6     7 1   
    13     6     8 1   
    14     9    10 ar  
    15     9    50 1   
    16    10    11 ar  
    17    10    12 1   
    18    11    51 1   
    19    12    13 1   
    20    12    27 2   
    21    13    14 1   
    22    13    52 1   
    23    14    15 1   
    24    14    53 1   
    25    14    54 1   
    26    15    16 1   
    27    15    55 1   
    28    15    56 1   
    29    16    17 1   
    30    16    57 1   
    31    16    58 1   
    32    17    18 1   
    33    17    26 1   
    34    18    19 1   
    35    18    59 1   
    36    18    60 1   
    37    19    20 1   
    38    19    61 1   
    39    19    62 1   
    40    20    21 1   
    41    20    25 1   
    42    21    22 1   
    43    21    67 1   
    44    21    68 1   
    45    22    23 1   
    46    22    69 1   
    47    22    70 1   
    48    23    24 1   
    49    23    71 1   
    50    23    72 1   
    51    24    73 1   
    52    24    74 1   
    53    25    26 1   
    54    25    63 1   
    55    25    64 1   
    56    26    65 1   
    57    26    66 1   
    58    28    29 1   
    59    28    30 1   
    60    28    39 1   
    61    29    40 1   
    62    30    31 1   
    63    30    32 1   
    64    30    41 1   
    65    31    42 1   
    66    32    33 1   
    67    32    34 1   
    68    32    43 1   
    69    33    44 1   
    70    34    35 1   
    71    34    37 1   
    72    34    45 1   
    73    35    36 1   
    74    35    46 1   
    75    35    47 1   
    76    36    48 1   
@<TRIPOS>SUBSTRUCTURE
     1 15B         1 TEMP              0 ****  ****    0 ROOT
