@<TRIPOS>MOLECULE
15C
   34    36     1     0     0
SMALL
bcc


@<TRIPOS>ATOM
      1 C1          -3.9690    -1.0160    -0.2270 ca         1 15C      -0.003300
      2 C2          -5.0900    -0.2480     0.1100 ca         1 15C      -0.120000
      3 C3          -4.9870     1.0540     0.5830 ca         1 15C      -0.110000
      4 C4          -3.7460     1.6640     0.7470 ca         1 15C      -0.069000
      5 C5          -2.6410     0.9130     0.4170 ca         1 15C      -0.140600
      6 C6          -2.7440    -0.3880    -0.0550 ca         1 15C      -0.150600
      7 C7          -1.3750    -0.8900    -0.3040 c          1 15C       0.735100
      8 C8          -1.2100     1.2780     0.4850 c          1 15C       0.733100
      9 N9          -0.5140     0.1560     0.0400 n          1 15C      -0.457600
     10 C10         -4.1110    -2.4150    -0.7370 c3         1 15C      -0.054800
     11 O11         -1.0160    -1.9600    -0.7210 o          1 15C      -0.551500
     12 O12         -0.7090     2.3090     0.8480 o          1 15C      -0.547500
     13 C13          0.8920     0.0790    -0.0440 ca         1 15C       0.078600
     14 C14          1.5830     0.9540    -0.8750 ca         1 15C      -0.131500
     15 C15          2.9620     0.8800    -0.9500 ca         1 15C      -0.075000
     16 C16          3.6650    -0.0700    -0.2110 ca         1 15C      -0.176600
     17 C17          2.9570    -0.9440     0.6120 ca         1 15C      -0.075000
     18 C18          1.5770    -0.8680     0.7040 ca         1 15C      -0.131500
     19 C19          5.1520    -0.1230    -0.3230 c          1 15C       0.584700
     20 C20          5.8890    -1.1620     0.4760 c3         1 15C      -0.195100
     21 O21          5.7390     0.6580    -1.0410 o          1 15C      -0.522100
     22 H2          -6.0740    -0.6860    -0.0050 ha         1 15C       0.139000
     23 H3          -5.8890     1.5990     0.8260 ha         1 15C       0.142000
     24 H4          -3.6590     2.6780     1.1150 ha         1 15C       0.158000
     25 H10         -3.7220    -2.5090    -1.7510 hc         1 15C       0.056700
     26 H10A        -3.5630    -3.1240    -0.1170 hc         1 15C       0.056700
     27 H10B        -5.1570    -2.7140    -0.7510 hc         1 15C       0.056700
     28 H14          1.0460     1.6830    -1.4680 ha         1 15C       0.146500
     29 H15          3.4940     1.5650    -1.5970 ha         1 15C       0.145500
     30 H17          3.4710    -1.6920     1.2000 ha         1 15C       0.145500
     31 H18          1.0410    -1.5380     1.3620 ha         1 15C       0.146500
     32 H20          5.5510    -2.1660     0.2180 hc         1 15C       0.061700
     33 H20A         6.9580    -1.0930     0.2890 hc         1 15C       0.061700
     34 H20B         5.7100    -1.0290     1.5440 hc         1 15C       0.061700
@<TRIPOS>BOND
     1     1     2 ar  
     2     1     6 ar  
     3     1    10 1   
     4     2     3 ar  
     5     2    22 1   
     6     3     4 ar  
     7     3    23 1   
     8     4     5 ar  
     9     4    24 1   
    10     5     6 ar  
    11     5     8 1   
    12     6     7 1   
    13     7     9 1   
    14     7    11 2   
    15     8     9 1   
    16     8    12 2   
    17     9    13 1   
    18    10    25 1   
    19    10    26 1   
    20    10    27 1   
    21    13    14 ar  
    22    13    18 ar  
    23    14    15 ar  
    24    14    28 1   
    25    15    16 ar  
    26    15    29 1   
    27    16    17 ar  
    28    16    19 1   
    29    17    18 ar  
    30    17    30 1   
    31    18    31 1   
    32    19    20 1   
    33    19    21 2   
    34    20    32 1   
    35    20    33 1   
    36    20    34 1   
@<TRIPOS>SUBSTRUCTURE
     1 15C         1 TEMP              0 ****  ****    0 ROOT
