@<TRIPOS>MOLECULE
15C
   34    36     1     0     0
SMALL
No Charge or Current Charge


@<TRIPOS>ATOM
      1 C1          -4.0280    -1.0340    -0.1530 ca         1 15C      -0.003300
      2 C2          -5.1880    -0.2600     0.0840 ca         1 15C      -0.102000
      3 C3          -5.0920     1.1090     0.4280 ca         1 15C      -0.092000
      4 C4          -3.8340     1.7330     0.5430 ca         1 15C      -0.051000
      5 C5          -2.6940     0.9540     0.3050 ca         1 15C      -0.140600
      6 C6          -2.7830    -0.3890    -0.0320 ca         1 15C      -0.150600
      7 C7          -1.3920    -0.9080    -0.2150 c          1 15C       0.592600
      8 C8          -1.2550     1.3360     0.3550 c          1 15C       0.590600
      9 N9          -0.5360     0.1770     0.0340 n          1 15C      -0.323600
     10 C10         -4.1370    -2.5060    -0.5230 c3         1 15C      -0.054800
     11 O11         -1.0630    -2.0400    -0.5380 o          1 15C      -0.476000
     12 O12         -0.8010     2.4350     0.6420 o          1 15C      -0.472000
     13 C13          0.8980     0.1070    -0.0320 ca         1 15C       0.078600
     14 C14          1.6360     1.1290    -0.6590 ca         1 15C      -0.113500
     15 C15          3.0380     1.0620    -0.7250 ca         1 15C      -0.057000
     16 C16          3.7380    -0.0300    -0.1640 ca         1 15C      -0.176600
     17 C17          2.9920    -1.0540     0.4660 ca         1 15C      -0.057000
     18 C18          1.5900    -0.9830     0.5280 ca         1 15C      -0.113500
     19 C19          5.2530    -0.0770    -0.2480 c          1 15C       0.584700
     20 C20          6.0100    -1.2600     0.3590 c3         1 15C      -0.195100
     21 O21          5.8800     0.8210    -0.7980 o          1 15C      -0.522100
     22 H2          -6.1710    -0.7190     0.0010 ha         1 15C       0.121000
     23 H3          -5.9980     1.6860     0.6060 ha         1 15C       0.124000
     24 H4          -3.7510     2.7860     0.8080 ha         1 15C       0.140000
     25 H10         -3.6930    -2.6980    -1.5070 hc         1 15C       0.056700
     26 H10A        -3.6180    -3.1350     0.2100 hc         1 15C       0.056700
     27 H10B        -5.1810    -2.8390    -0.5620 hc         1 15C       0.056700
     28 H14          1.1260     1.9750    -1.1110 ha         1 15C       0.128500
     29 H15          3.5780     1.8680    -1.2200 ha         1 15C       0.127500
     30 H17          3.4830    -1.9140     0.9160 ha         1 15C       0.127500
     31 H18          1.0440    -1.7780     1.0290 ha         1 15C       0.128500
     32 H20          5.6270    -2.1910    -0.0740 hc         1 15C       0.061700
     33 H20A         7.0950    -1.1750     0.2310 hc         1 15C       0.061700
     34 H20B         5.7390    -1.3540     1.4160 hc         1 15C       0.061700
@<TRIPOS>BOND
     1     1     2 ar  
     2     1     6 ar  
     3     1    10 1   
     4     2     3 ar  
     5     2    22 1   
     6     3     4 ar  
     7     3    23 1   
     8     4     5 ar  
     9     4    24 1   
    10     5     6 ar  
    11     5     8 1   
    12     6     7 1   
    13     7     9 1   
    14     7    11 2   
    15     8     9 1   
    16     8    12 2   
    17     9    13 1   
    18    10    25 1   
    19    10    26 1   
    20    10    27 1   
    21    13    14 ar  
    22    13    18 ar  
    23    14    15 ar  
    24    14    28 1   
    25    15    16 ar  
    26    15    29 1   
    27    16    17 ar  
    28    16    19 1   
    29    17    18 ar  
    30    17    30 1   
    31    18    31 1   
    32    19    20 1   
    33    19    21 2   
    34    20    32 1   
    35    20    33 1   
    36    20    34 1   
@<TRIPOS>SUBSTRUCTURE
     1 15C         1 TEMP              0 ****  ****    0 ROOT
