@<TRIPOS>MOLECULE
15E
   22    23     1     0     0
SMALL
No Charge or Current Charge


@<TRIPOS>ATOM
      1 OAM         -4.6670    -0.9120     0.1730 o          1 15E      -0.585000
      2 CAH         -3.5240    -0.4800     0.1090 c          1 15E       0.631000
      3 NAG         -2.4350    -1.3210     0.1220 ns         1 15E      -0.153000
      4 CAD         -1.0820    -0.9580     0.0560 ca         1 15E       0.024000
      5 CAC         -0.0700    -1.9330     0.0790 ca         1 15E      -0.168000
      6 CAB          1.2790    -1.5430     0.0110 ca         1 15E      -0.040000
      7 CAA          1.6070    -0.1790    -0.0790 ca         1 15E      -0.056900
      8 Br           3.4410     0.3560    -0.1720 br         1 15E      -0.093100
      9 CAF          0.5920     0.7950    -0.1030 ca         1 15E      -0.039000
     10 CAE         -0.7590     0.4040    -0.0350 ca         1 15E      -0.158300
     11 CAJ         -1.8700     1.4540    -0.0590 c6         1 15E       0.168300
     12 NAI         -3.2480     0.9030     0.0190 n          1 15E      -0.420800
     13 CAL         -4.3680     1.8690    -0.0000 c3         1 15E       0.093300
     14 H1          -2.6340    -2.3100     0.1870 hn         1 15E       0.177000
     15 H2          -0.3250    -2.9880     0.1500 ha         1 15E       0.123000
     16 H3           2.0660    -2.2940     0.0290 ha         1 15E       0.132000
     17 H4           0.8550     1.8490    -0.1730 ha         1 15E       0.129000
     18 H5          -1.7190     2.1450     0.7820 h1         1 15E       0.048200
     19 H6          -1.7780     2.0420    -0.9840 h1         1 15E       0.048200
     20 H7          -5.0150     1.6690    -0.8640 h1         1 15E       0.046700
     21 H8          -4.9560     1.7730     0.9210 h1         1 15E       0.046700
     22 H9          -3.9880     2.8960    -0.0720 h1         1 15E       0.046700
@<TRIPOS>BOND
     1     1     2 2   
     2     2     3 1   
     3     2    12 1   
     4     3     4 1   
     5     3    14 1   
     6     4     5 ar  
     7     4    10 ar  
     8     5     6 ar  
     9     5    15 1   
    10     6     7 ar  
    11     6    16 1   
    12     7     8 1   
    13     7     9 ar  
    14     9    10 ar  
    15     9    17 1   
    16    10    11 1   
    17    11    12 1   
    18    11    18 1   
    19    11    19 1   
    20    12    13 1   
    21    13    20 1   
    22    13    21 1   
    23    13    22 1   
@<TRIPOS>SUBSTRUCTURE
     1 15E         1 TEMP              0 ****  ****    0 ROOT
