@<TRIPOS>MOLECULE
15E
   22    23     1     0     0
SMALL
bcc


@<TRIPOS>ATOM
      1 OAM         -4.6410    -0.9140    -0.0040 o          1 15E      -0.660500
      2 CAH         -3.5010    -0.4690     0.0030 c          1 15E       0.840500
      3 NAG         -2.4300    -1.3280     0.0190 ns         1 15E      -0.479100
      4 CAD         -1.1040    -0.9500     0.0110 ca         1 15E       0.116600
      5 CAC         -0.0880    -1.9030     0.0020 ca         1 15E      -0.186000
      6 CAB          1.2390    -1.5110    -0.0030 ca         1 15E      -0.058000
      7 CAA          1.5480    -0.1580    -0.0020 ca         1 15E      -0.056900
      8 BR           3.3550     0.3910    -0.0090 br         1 15E      -0.093100
      9 CAF          0.5430     0.7960     0.0040 ca         1 15E      -0.057000
     10 CAE         -0.7870     0.4030     0.0110 ca         1 15E      -0.158300
     11 CAJ         -1.8790     1.4270     0.0230 c6         1 15E       0.168300
     12 NAI         -3.2100     0.8510    -0.0050 n          1 15E      -0.487800
     13 CAL         -4.2690     1.8340    -0.0110 c3         1 15E       0.093300
     14 H1          -2.6570    -2.3110     0.0240 hn         1 15E       0.343500
     15 H2          -0.3320    -2.9570     0.0010 ha         1 15E       0.141000
     16 H3           2.0160    -2.2630    -0.0090 ha         1 15E       0.150000
     17 H4           0.7810     1.8530     0.0040 ha         1 15E       0.147000
     18 H5          -1.7870     2.0590     0.9140 h1         1 15E       0.048200
     19 H6          -1.7690     2.0970    -0.8370 h1         1 15E       0.048200
     20 H7          -5.2400     1.3510    -0.0290 h1         1 15E       0.046700
     21 H8          -4.2060     2.4630     0.8800 h1         1 15E       0.046700
     22 H9          -4.1800     2.4780    -0.8880 h1         1 15E       0.046700
@<TRIPOS>BOND
     1     1     2 2   
     2     2     3 1   
     3     2    12 1   
     4     3     4 1   
     5     3    14 1   
     6     4     5 ar  
     7     4    10 ar  
     8     5     6 ar  
     9     5    15 1   
    10     6     7 ar  
    11     6    16 1   
    12     7     8 1   
    13     7     9 ar  
    14     9    10 ar  
    15     9    17 1   
    16    10    11 1   
    17    11    12 1   
    18    11    18 1   
    19    11    19 1   
    20    12    13 1   
    21    13    20 1   
    22    13    21 1   
    23    13    22 1   
@<TRIPOS>SUBSTRUCTURE
     1 15E         1 TEMP              0 ****  ****    0 ROOT
