@<TRIPOS>MOLECULE
15G
   45    48     1     0     0
SMALL
No Charge or Current Charge


@<TRIPOS>ATOM
      1 C1          -6.4760     1.5310     0.1830 ca         1 15G       0.093000
      2 C2          -5.4980     1.9390     1.1040 ca         1 15G      -0.090000
      3 C3          -4.2420     1.3030     1.1140 ca         1 15G      -0.141000
      4 C7           3.2750    -4.4260     0.8850 c3         1 15G       0.143900
      5 C8           3.9340    -0.3380    -0.0000 cc         1 15G      -0.053000
      6 C9           4.5460     0.9120    -0.2090 cc         1 15G      -0.238600
      7 C10          5.9840     1.2370    -0.1040 c          1 15G       0.605600
      8 C11          5.2780     3.6720    -0.3580 c6         1 15G       0.116000
      9 C12          3.9110     3.2360    -0.9520 c6         1 15G      -0.025100
     10 C13          3.5960     1.8160    -0.5610 cd         1 15G      -0.124300
     11 C14          2.5770    -0.2200    -0.2140 cd         1 15G      -0.145000
     12 C15          1.5030    -1.2470    -0.1180 ca         1 15G       0.000000
     13 C16          0.1680    -0.8680    -0.3930 ca         1 15G      -0.118000
     14 C19         -0.8780    -1.8060    -0.3120 ca         1 15G       0.307300
     15 C20         -2.3180    -1.3900    -0.6150 c3         1 15G       0.118300
     16 N2           6.2710     2.5780    -0.2530 ns         1 15G      -0.510900
     17 N3           2.3770     1.1320    -0.5690 na         1 15G      -0.087000
     18 C17          1.7220    -2.6080     0.2360 ca         1 15G       0.107100
     19 C18          0.6030    -3.4810     0.2890 ca         1 15G       0.264900
     20 N1          -0.6660    -3.0990     0.0220 nb         1 15G      -0.647000
     21 O2           3.0000    -3.0610     0.5210 os         1 15G      -0.324100
     22 C4          -3.9600     0.2640     0.2100 ca         1 15G       0.163100
     23 C5          -4.9450    -0.1450    -0.7150 ca         1 15G      -0.221000
     24 C6          -6.1980     0.4910    -0.7240 ca         1 15G       0.175000
     25 F1          -7.6830     2.1440     0.1750 f          1 15G      -0.161000
     26 F2          -7.1360     0.0940    -1.6140 f          1 15G      -0.159000
     27 H1          -5.7120     2.7420     1.8050 ha         1 15G       0.137000
     28 H2          -3.4820     1.6160     1.8260 ha         1 15G       0.132000
     29 H3           2.7380    -4.7020     1.8020 h1         1 15G       0.046700
     30 H4           2.9770    -5.1120     0.0810 h1         1 15G       0.046700
     31 H5           4.3480    -4.5620     1.0660 h1         1 15G       0.046700
     32 H6           4.4880    -1.2260     0.2840 ha         1 15G       0.158000
     33 H7           5.7030     4.4920    -0.9550 h1         1 15G       0.043200
     34 H8           5.1120     4.0570     0.6580 h1         1 15G       0.043200
     35 H9           3.1230     3.9290    -0.6290 hc         1 15G       0.061700
     36 H10          3.9600     3.3070    -2.0470 hc         1 15G       0.061700
     37 H11         -0.0790     0.1520    -0.6690 ha         1 15G       0.130000
     38 H12         -2.3740    -1.0670    -1.6620 h1         1 15G       0.059200
     39 H13         -2.9830    -2.2550    -0.4890 h1         1 15G       0.059200
     40 H14          7.2510     2.8250    -0.1940 hn         1 15G       0.313500
     41 H15          1.4850     1.5490    -0.8100 hn         1 15G       0.348000
     42 H16          0.7160    -4.5310     0.5530 h4         1 15G       0.026100
     43 H17         -4.7620    -0.9430    -1.4270 ha         1 15G       0.143000
     44 O3          -2.7120    -0.3190     0.2690 os         1 15G      -0.351100
     45 O1           6.8630     0.4190     0.1110 o          1 15G      -0.561000
@<TRIPOS>BOND
     1     1     2 ar  
     2     1    24 ar  
     3     1    25 1   
     4     2     3 ar  
     5     2    27 1   
     6     3    22 ar  
     7     3    28 1   
     8     4    21 1   
     9     4    29 1   
    10     4    30 1   
    11     4    31 1   
    12     5     6 1   
    13     5    11 2   
    14     5    32 1   
    15     6     7 1   
    16     6    10 2   
    17     7    16 1   
    18     7    45 2   
    19     8     9 1   
    20     8    16 1   
    21     8    33 1   
    22     8    34 1   
    23     9    10 1   
    24     9    35 1   
    25     9    36 1   
    26    10    17 1   
    27    11    12 1   
    28    11    17 1   
    29    12    13 ar  
    30    12    18 ar  
    31    13    14 ar  
    32    13    37 1   
    33    14    15 1   
    34    14    20 ar  
    35    15    38 1   
    36    15    39 1   
    37    15    44 1   
    38    16    40 1   
    39    17    41 1   
    40    18    19 ar  
    41    18    21 1   
    42    19    20 ar  
    43    19    42 1   
    44    22    23 ar  
    45    22    44 1   
    46    23    24 ar  
    47    23    43 1   
    48    24    26 1   
@<TRIPOS>SUBSTRUCTURE
     1 15G         1 TEMP              0 ****  ****    0 ROOT
