@<TRIPOS>MOLECULE
15G
   45    48     1     0     0
SMALL
abcg2


@<TRIPOS>ATOM
      1 C1          -6.1370     1.7290    -0.0180 ca         1 15G       0.093000
      2 C2          -4.9710     2.4710    -0.0140 ca         1 15G      -0.090000
      3 C3          -3.7450     1.8310    -0.0050 ca         1 15G      -0.141000
      4 C7           3.3030    -4.5010    -0.0520 c3         1 15G       0.143900
      5 C8           3.8860    -0.3880     0.3270 cc         1 15G      -0.053000
      6 C9           4.4300     0.8990     0.1150 cc         1 15G      -0.238600
      7 C10          5.7870     1.4020     0.3150 c          1 15G       0.605600
      8 C11          4.8000     3.6470    -0.0340 c6         1 15G       0.116000
      9 C12          3.6730     3.0810    -0.8930 c6         1 15G      -0.025100
     10 C13          3.4480     1.6840    -0.4500 cd         1 15G      -0.124300
     11 C14          2.5750    -0.3440    -0.0960 cd         1 15G      -0.145000
     12 C15          1.5000    -1.3240    -0.0550 ca         1 15G       0.000000
     13 C16          0.1650    -0.9200    -0.0410 ca         1 15G      -0.118000
     14 C19         -0.8510    -1.8620    -0.0250 ca         1 15G       0.307300
     15 C20         -2.3120    -1.5040    -0.0110 c3         1 15G       0.118300
     16 N2           5.9230     2.7260     0.0550 ns         1 15G      -0.510900
     17 N3           2.3420     0.9340    -0.5670 na         1 15G      -0.087000
     18 C17          1.7460    -2.7080    -0.0370 ca         1 15G       0.107100
     19 C18          0.6560    -3.5740    -0.0200 ca         1 15G       0.264900
     20 N1          -0.6040    -3.1630    -0.0150 nb         1 15G      -0.647000
     21 O2           3.0230    -3.1130    -0.0490 os         1 15G      -0.324100
     22 C4          -3.6800     0.4380     0.0010 ca         1 15G       0.163100
     23 C5          -4.8540    -0.3110    -0.0010 ca         1 15G      -0.221000
     24 C6          -6.0670     0.3510    -0.0110 ca         1 15G       0.175000
     25 F1          -7.3330     2.3320    -0.0270 f          1 15G      -0.161000
     26 F2          -7.2000    -0.3590    -0.0140 f          1 15G      -0.159000
     27 H1          -5.0240     3.5520    -0.0190 ha         1 15G       0.137000
     28 H2          -2.8330     2.4130    -0.0020 ha         1 15G       0.132000
     29 H3           2.9210    -4.9960     0.8440 h1         1 15G       0.046700
     30 H4           2.8940    -4.9970    -0.9360 h1         1 15G       0.046700
     31 H5           4.3860    -4.5920    -0.0690 h1         1 15G       0.046700
     32 H6           4.3860    -1.2280     0.7760 ha         1 15G       0.158000
     33 H7           5.1620     4.5790    -0.4620 h1         1 15G       0.043200
     34 H8           4.4090     3.8730     0.9640 h1         1 15G       0.043200
     35 H9           2.7830     3.7010    -0.7780 hc         1 15G       0.061700
     36 H10          3.9470     3.1030    -1.9530 hc         1 15G       0.061700
     37 H11         -0.0810     0.1320    -0.0180 ha         1 15G       0.130000
     38 H12         -2.7960    -1.9280    -0.8990 h1         1 15G       0.059200
     39 H13         -2.7860    -1.9580     0.8670 h1         1 15G       0.059200
     40 H14          6.8250     3.1290     0.2600 hn         1 15G       0.313500
     41 H15          1.4860     1.2480    -0.9990 hn         1 15G       0.348000
     42 H16          0.8020    -4.6470    -0.0140 h4         1 15G       0.026100
     43 H17         -4.8590    -1.3930     0.0040 ha         1 15G       0.143000
     44 O3          -2.4470    -0.1020     0.0120 os         1 15G      -0.351100
     45 O1           6.7290     0.6890     0.6450 o          1 15G      -0.561000
@<TRIPOS>BOND
     1     1     2 ar  
     2     1    24 ar  
     3     1    25 1   
     4     2     3 ar  
     5     2    27 1   
     6     3    22 ar  
     7     3    28 1   
     8     4    21 1   
     9     4    29 1   
    10     4    30 1   
    11     4    31 1   
    12     5     6 1   
    13     5    11 2   
    14     5    32 1   
    15     6     7 1   
    16     6    10 2   
    17     7    16 1   
    18     7    45 2   
    19     8     9 1   
    20     8    16 1   
    21     8    33 1   
    22     8    34 1   
    23     9    10 1   
    24     9    35 1   
    25     9    36 1   
    26    10    17 1   
    27    11    12 1   
    28    11    17 1   
    29    12    13 ar  
    30    12    18 ar  
    31    13    14 ar  
    32    13    37 1   
    33    14    15 1   
    34    14    20 ar  
    35    15    38 1   
    36    15    39 1   
    37    15    44 1   
    38    16    40 1   
    39    17    41 1   
    40    18    19 ar  
    41    18    21 1   
    42    19    20 ar  
    43    19    42 1   
    44    22    23 ar  
    45    22    44 1   
    46    23    24 ar  
    47    23    43 1   
    48    24    26 1   
@<TRIPOS>SUBSTRUCTURE
     1 15G         1 TEMP              0 ****  ****    0 ROOT
