@<TRIPOS>MOLECULE
15H
   57    61     1     0     0
SMALL
bcc


@<TRIPOS>ATOM
      1 N4           5.8100     1.7890     0.5530 nc         1 15H      -0.630100
      2 C13          6.7980     0.9920     0.0280 ca         1 15H       0.140400
      3 C17          8.1630     1.2720     0.0490 ca         1 15H      -0.095000
      4 C16          9.0450     0.3760    -0.5310 ca         1 15H      -0.119000
      5 C15          8.5890    -0.7980    -1.1330 ca         1 15H      -0.137000
      6 C14          7.2340    -1.0950    -1.1650 ca         1 15H      -0.081000
      7 C12          6.3570    -0.1950    -0.5790 ca         1 15H      -0.070100
      8 S1           4.6230    -0.2930    -0.4620 ss         1 15H      -0.135100
      9 C11          4.6470     1.2550     0.3790 cd         1 15H       0.646100
     10 N3           3.5050     1.8080     0.8390 nu         1 15H      -0.714600
     11 C8           2.2120     1.2840     0.6750 ca         1 15H       0.146600
     12 C9           1.3950     1.1180     1.7900 ca         1 15H      -0.140000
     13 C10          0.1080     0.6250     1.6470 ca         1 15H      -0.103500
     14 C7           1.7220     0.9650    -0.5890 ca         1 15H      -0.140000
     15 C6           0.4450     0.4470    -0.7300 ca         1 15H      -0.103500
     16 C5          -0.3560     0.2850     0.3880 ca         1 15H       0.102100
     17 O1          -1.6540    -0.1490     0.2430 os         1 15H      -0.358400
     18 C3          -1.8940    -1.4760     0.2260 ca         1 15H       0.514300
     19 N2          -0.9210    -2.3150     0.3950 nb         1 15H      -0.698000
     20 C2          -1.2170    -3.6210     0.4520 ca         1 15H       0.285900
     21 C1          -2.5180    -4.0430     0.3580 ca         1 15H       0.287900
     22 N1          -3.5180    -3.1790     0.1550 nb         1 15H      -0.697000
     23 C4          -3.2490    -1.8940     0.0630 ca         1 15H       0.546900
     24 N5          -4.2690    -0.9840    -0.0970 nh         1 15H      -0.746300
     25 C22         -5.6190    -1.4490     0.1680 c6         1 15H       0.206300
     26 C21         -6.5350    -0.2690     0.4590 c6         1 15H      -0.076900
     27 C18         -4.2190    -0.0620    -1.2300 c6         1 15H       0.206300
     28 C19         -5.0830     1.1580    -0.9680 c6         1 15H      -0.076900
     29 C20         -6.5280     0.7650    -0.6640 c6         1 15H      -0.056700
     30 C23         -7.3880     1.9810    -0.3230 c3         1 15H       0.154100
     31 C24         -8.8400     1.6300    -0.0270 c3         1 15H      -0.129100
     32 O2          -7.3030     2.8780    -1.4160 oh         1 15H      -0.601800
     33 H1           8.5190     2.1830     0.5130 ha         1 15H       0.147000
     34 H2          10.1060     0.5900    -0.5170 ha         1 15H       0.133000
     35 H3           9.2950    -1.4850    -1.5790 ha         1 15H       0.132000
     36 H4           6.8760    -2.0040    -1.6290 ha         1 15H       0.139000
     37 H5           3.6280     2.5640     1.4970 hn         1 15H       0.457800
     38 H6           1.7690     1.3690     2.7750 ha         1 15H       0.146000
     39 H7          -0.5260     0.5020     2.5150 ha         1 15H       0.149000
     40 H8           2.3220     1.1390    -1.4720 ha         1 15H       0.146000
     41 H9           0.0670     0.2000    -1.7140 ha         1 15H       0.149000
     42 H10         -0.3990    -4.3130     0.5980 h4         1 15H       0.032100
     43 H11         -2.7770    -5.0910     0.4390 h4         1 15H       0.030100
     44 H12         -6.0160    -2.0240    -0.6810 h1         1 15H       0.046450
     45 H13         -5.6070    -2.1190     1.0260 h1         1 15H       0.046450
     46 H14         -7.5400    -0.6630     0.6210 hc         1 15H       0.053700
     47 H15         -6.2210     0.2020     1.3970 hc         1 15H       0.053700
     48 H16         -3.1960     0.2460    -1.4260 h1         1 15H       0.046450
     49 H17         -4.5750    -0.5760    -2.1350 h1         1 15H       0.046450
     50 H18         -4.6640     1.7140    -0.1220 hc         1 15H       0.053700
     51 H19         -5.0310     1.8110    -1.8410 hc         1 15H       0.053700
     52 H20         -6.9490     0.2890    -1.5620 hc         1 15H       0.056700
     53 H21         -6.9600     2.4470     0.5800 h1         1 15H       0.027700
     54 H22         -9.2970     1.0990    -0.8660 hc         1 15H       0.040700
     55 H23         -8.9310     1.0040     0.8600 hc         1 15H       0.040700
     56 H24         -9.4220     2.5340     0.1600 hc         1 15H       0.040700
     57 H25         -7.8120     3.6640    -1.1960 ho         1 15H       0.403000
@<TRIPOS>BOND
     1     1     2 1   
     2     1     9 2   
     3     2     3 ar  
     4     2     7 ar  
     5     3     4 ar  
     6     3    33 1   
     7     4     5 ar  
     8     4    34 1   
     9     5     6 ar  
    10     5    35 1   
    11     6     7 ar  
    12     6    36 1   
    13     7     8 1   
    14     8     9 1   
    15     9    10 1   
    16    10    11 1   
    17    10    37 1   
    18    11    12 ar  
    19    11    14 ar  
    20    12    13 ar  
    21    12    38 1   
    22    13    16 ar  
    23    13    39 1   
    24    14    15 ar  
    25    14    40 1   
    26    15    16 ar  
    27    15    41 1   
    28    16    17 1   
    29    17    18 1   
    30    18    19 ar  
    31    18    23 ar  
    32    19    20 ar  
    33    20    21 ar  
    34    20    42 1   
    35    21    22 ar  
    36    21    43 1   
    37    22    23 ar  
    38    23    24 1   
    39    24    25 1   
    40    24    27 1   
    41    25    26 1   
    42    25    44 1   
    43    25    45 1   
    44    26    29 1   
    45    26    46 1   
    46    26    47 1   
    47    27    28 1   
    48    27    48 1   
    49    27    49 1   
    50    28    29 1   
    51    28    50 1   
    52    28    51 1   
    53    29    30 1   
    54    29    52 1   
    55    30    31 1   
    56    30    32 1   
    57    30    53 1   
    58    31    54 1   
    59    31    55 1   
    60    31    56 1   
    61    32    57 1   
@<TRIPOS>SUBSTRUCTURE
     1 15H         1 TEMP              0 ****  ****    0 ROOT
