@<TRIPOS>MOLECULE
15H
   57    61     1     0     0
SMALL
No Charge or Current Charge


@<TRIPOS>ATOM
      1 N4           5.4350     1.9030     0.2990 nc         1 15H      -0.630100
      2 C13          6.5540     1.3630    -0.3320 ca         1 15H       0.140400
      3 C17          7.7770     2.0430    -0.4590 ca         1 15H      -0.077000
      4 C16          8.8590     1.4200    -1.1130 ca         1 15H      -0.101000
      5 C15          8.7180     0.1180    -1.6360 ca         1 15H      -0.119000
      6 C14          7.4940    -0.5640    -1.5060 ca         1 15H      -0.063000
      7 C12          6.4340     0.0830    -0.8510 ca         1 15H      -0.197000
      8 S1           4.8370    -0.5860    -0.5770 ss         1 15H      -0.008200
      9 C11          4.4840     0.9810     0.2020 cd         1 15H       0.646100
     10 N3           3.3310     1.3170     0.8300 nu         1 15H      -0.908200
     11 C8           2.0620     0.7460     0.9290 ca         1 15H       0.285000
     12 C9           1.2520     1.0930     2.0240 ca         1 15H      -0.122000
     13 C10         -0.0380     0.5480     2.1620 ca         1 15H      -0.085500
     14 C7           1.5530    -0.1310    -0.0490 ca         1 15H      -0.122000
     15 C6           0.2630    -0.6790     0.0840 ca         1 15H      -0.085500
     16 C5          -0.5300    -0.3510     1.2020 ca         1 15H       0.102100
     17 O1          -1.8050    -0.8470     1.3520 os         1 15H      -0.358400
     18 C3          -2.1820    -2.1080     0.9250 ca         1 15H       0.514300
     19 N2          -1.3610    -3.1560     1.2320 nb         1 15H      -0.698000
     20 C2          -1.8060    -4.3780     0.8310 ca         1 15H       0.285900
     21 C1          -3.0400    -4.5620     0.1490 ca         1 15H       0.287900
     22 N1          -3.8740    -3.5310    -0.1590 nb         1 15H      -0.697000
     23 C4          -3.4460    -2.2970     0.2280 ca         1 15H       0.546900
     24 N5          -4.3400    -1.2430    -0.1200 nh         1 15H      -0.746300
     25 C22         -5.8040    -1.4770    -0.2550 c6         1 15H       0.206300
     26 C21         -6.6030    -0.1970     0.0920 c6         1 15H      -0.076900
     27 C18         -3.8470    -0.1100    -0.9450 c6         1 15H       0.206300
     28 C19         -4.6010     1.1930    -0.5920 c6         1 15H      -0.076900
     29 C20         -6.1410     1.0290    -0.7510 c6         1 15H      -0.056700
     30 C23         -6.9110     2.3450    -0.3820 c3         1 15H       0.177300
     31 C24         -8.4450     2.2630    -0.5290 c3         1 15H      -0.129100
     32 O2          -6.4640     3.4400    -1.1880 oh         1 15H      -0.664000
     33 H1           7.8850     3.0470    -0.0560 ha         1 15H       0.129000
     34 H2           9.8070     1.9450    -1.2130 ha         1 15H       0.115000
     35 H3           9.5550    -0.3610    -2.1390 ha         1 15H       0.114000
     36 H4           7.3730    -1.5700    -1.9030 ha         1 15H       0.121000
     37 H5           3.4820     2.1520     1.3890 hn         1 15H       0.513000
     38 H6           1.6220     1.7820     2.7780 ha         1 15H       0.128000
     39 H7          -0.6560     0.8190     3.0140 ha         1 15H       0.131000
     40 H8           2.1340    -0.3760    -0.9310 ha         1 15H       0.128000
     41 H9          -0.1160    -1.3450    -0.6860 ha         1 15H       0.131000
     42 H10         -1.1680    -5.2310     1.0600 h4         1 15H       0.032100
     43 H11         -3.3630    -5.5570    -0.1530 h4         1 15H       0.030100
     44 H12         -6.0420    -1.7910    -1.2820 h1         1 15H       0.046450
     45 H13         -6.1330    -2.2800     0.4210 h1         1 15H       0.046450
     46 H14         -7.6680    -0.4020    -0.0730 hc         1 15H       0.053700
     47 H15         -6.4870     0.0220     1.1620 hc         1 15H       0.053700
     48 H16         -2.7710     0.0540    -0.7980 h1         1 15H       0.046450
     49 H17         -3.9940    -0.3350    -2.0110 h1         1 15H       0.046450
     50 H18         -4.3590     1.4840     0.4400 hc         1 15H       0.053700
     51 H19         -4.2310     2.0000    -1.2380 hc         1 15H       0.053700
     52 H20         -6.3620     0.8240    -1.8080 hc         1 15H       0.056700
     53 H21         -6.6920     2.5650     0.6720 h1         1 15H       0.027700
     54 H22         -8.7250     1.9510    -1.5430 hc         1 15H       0.040700
     55 H23         -8.8720     1.5470     0.1830 hc         1 15H       0.040700
     56 H24         -8.9090     3.2360    -0.3280 hc         1 15H       0.040700
     57 H25         -6.9260     4.2420    -0.8600 ho         1 15H       0.442000
@<TRIPOS>BOND
     1     1     2 1   
     2     1     9 2   
     3     2     3 ar  
     4     2     7 ar  
     5     3     4 ar  
     6     3    33 1   
     7     4     5 ar  
     8     4    34 1   
     9     5     6 ar  
    10     5    35 1   
    11     6     7 ar  
    12     6    36 1   
    13     7     8 1   
    14     8     9 1   
    15     9    10 1   
    16    10    11 1   
    17    10    37 1   
    18    11    12 ar  
    19    11    14 ar  
    20    12    13 ar  
    21    12    38 1   
    22    13    16 ar  
    23    13    39 1   
    24    14    15 ar  
    25    14    40 1   
    26    15    16 ar  
    27    15    41 1   
    28    16    17 1   
    29    17    18 1   
    30    18    19 ar  
    31    18    23 ar  
    32    19    20 ar  
    33    20    21 ar  
    34    20    42 1   
    35    21    22 ar  
    36    21    43 1   
    37    22    23 ar  
    38    23    24 1   
    39    24    25 1   
    40    24    27 1   
    41    25    26 1   
    42    25    44 1   
    43    25    45 1   
    44    26    29 1   
    45    26    46 1   
    46    26    47 1   
    47    27    28 1   
    48    27    48 1   
    49    27    49 1   
    50    28    29 1   
    51    28    50 1   
    52    28    51 1   
    53    29    30 1   
    54    29    52 1   
    55    30    31 1   
    56    30    32 1   
    57    30    53 1   
    58    31    54 1   
    59    31    55 1   
    60    31    56 1   
    61    32    57 1   
@<TRIPOS>SUBSTRUCTURE
     1 15H         1 TEMP              0 ****  ****    0 ROOT
