@<TRIPOS>MOLECULE
15I
   40    43     1     0     0
SMALL
No Charge or Current Charge


@<TRIPOS>ATOM
      1 C12          3.9530    -1.3700     1.6600 cc         1 15I       0.396700
      2 N3           2.6750    -1.1730     1.2940 nd         1 15I      -0.558100
      3 N4           4.8100    -0.6210     0.8620 na         1 15I      -0.414300
      4 C13          4.0650     0.0770    -0.0360 ca         1 15I       0.121500
      5 N5           4.4180     0.9440    -0.9980 nb         1 15I      -0.227000
      6 C            3.3950     1.4710    -1.7060 ca         1 15I       0.186900
      7 C11          2.7600    -0.2660     0.2230 ca         1 15I      -0.091600
      8 C1           1.7380     0.3310    -0.5730 ca         1 15I       0.458900
      9 N            2.0780     1.2110    -1.5420 nb         1 15I      -0.311000
     10 N1           0.3470     0.0810    -0.4330 nh         1 15I      -0.752300
     11 C10         -0.6100     1.2220    -0.3180 c6         1 15I       0.212800
     12 C9          -2.0100     0.8500    -0.8660 c6         1 15I      -0.092400
     13 C4          -2.5990    -0.4390    -0.2040 c6         1 15I      -0.043000
     14 C3          -1.5440    -1.5720    -0.3880 c6         1 15I      -0.092400
     15 C2          -0.1450    -1.1930     0.1610 c6         1 15I       0.212800
     16 C8          -2.9050    -0.2180     1.3190 c6         1 15I       0.165800
     17 N2          -4.0070     0.7520     1.5450 n7         1 15I      -0.865400
     18 C7          -5.2730     0.3360     0.9000 c6         1 15I       0.159800
     19 C6          -5.0890     0.1230    -0.6220 c6         1 15I      -0.073400
     20 C5          -3.9290    -0.8650    -0.9090 c6         1 15I      -0.069400
     21 H12          4.3070    -2.0120     2.4590 h5         1 15I       0.064800
     22 H4           5.8170    -0.6000     0.9450 hn         1 15I       0.369000
     23 H            3.6590     2.1790    -2.4900 h5         1 15I       0.045100
     24 H101        -0.6960     1.5380     0.7320 h1         1 15I       0.069700
     25 H102        -0.2500     2.0990    -0.8780 h1         1 15I       0.069700
     26 H21C         0.5420    -2.0170    -0.0810 h1         1 15I       0.069700
     27 H22C        -0.1830    -1.1140     1.2580 h1         1 15I       0.069700
     28 H91C        -2.6810     1.7060    -0.7240 hc         1 15I       0.055700
     29 H92C        -1.9330     0.7040    -1.9520 hc         1 15I       0.055700
     30 H31C        -1.8860    -2.4940     0.1010 hc         1 15I       0.055700
     31 H32C        -1.4450    -1.8140    -1.4550 hc         1 15I       0.055700
     32 H81C        -3.1840    -1.1800     1.7740 h1         1 15I       0.028200
     33 H82C        -2.0070     0.1340     1.8470 h1         1 15I       0.028200
     34 H51C        -3.7780    -0.9520    -1.9940 hc         1 15I       0.039700
     35 H52C        -4.2250    -1.8650    -0.5630 hc         1 15I       0.039700
     36 H2          -4.1670     0.8400     2.5570 hn         1 15I       0.412000
     37 H71C        -5.6230    -0.6010     1.3590 h1         1 15I       0.027700
     38 H72C        -6.0440     1.1010     1.0760 h1         1 15I       0.027700
     39 H61C        -6.0220    -0.2640    -1.0540 hc         1 15I       0.046700
     40 H62C        -4.9020     1.0870    -1.1130 hc         1 15I       0.046700
@<TRIPOS>BOND
     1     1     2 2   
     2     1     3 1   
     3     1    21 1   
     4     2     7 1   
     5     3     4 1   
     6     3    22 1   
     7     4     5 ar  
     8     4     7 ar  
     9     5     6 ar  
    10     6     9 ar  
    11     6    23 1   
    12     7     8 ar  
    13     8     9 ar  
    14     8    10 1   
    15    10    11 1   
    16    10    15 1   
    17    11    12 1   
    18    11    24 1   
    19    11    25 1   
    20    12    13 1   
    21    12    28 1   
    22    12    29 1   
    23    13    14 1   
    24    13    16 1   
    25    13    20 1   
    26    14    15 1   
    27    14    30 1   
    28    14    31 1   
    29    15    26 1   
    30    15    27 1   
    31    16    17 1   
    32    16    32 1   
    33    16    33 1   
    34    17    18 1   
    35    17    36 1   
    36    18    19 1   
    37    18    37 1   
    38    18    38 1   
    39    19    20 1   
    40    19    39 1   
    41    19    40 1   
    42    20    34 1   
    43    20    35 1   
@<TRIPOS>SUBSTRUCTURE
     1 15I         1 TEMP              0 ****  ****    0 ROOT
