@<TRIPOS>MOLECULE
15I
   40    43     1     0     0
SMALL
abcg2


@<TRIPOS>ATOM
      1 C12          3.8890    -2.0140     0.4570 cc         1 15I       0.396700
      2 N3           2.6980    -1.5840     0.7500 nd         1 15I      -0.558100
      3 N4           4.5630    -1.1810    -0.3790 na         1 15I      -0.414300
      4 C13          3.7410    -0.1320    -0.6450 ca         1 15I       0.121500
      5 N5           3.9960     0.9250    -1.4140 nb         1 15I      -0.227000
      6 C            2.9710     1.7560    -1.4390 ca         1 15I       0.186900
      7 C11          2.5710    -0.3950     0.0690 ca         1 15I      -0.091600
      8 C1           1.5440     0.5800    -0.0400 ca         1 15I       0.458900
      9 N            1.8060     1.6420    -0.8180 nb         1 15I      -0.311000
     10 N1           0.3590     0.5350     0.5890 nh         1 15I      -0.752300
     11 C10         -0.6800     1.5230     0.3470 c6         1 15I       0.212800
     12 C9          -1.8070     0.9300    -0.4900 c6         1 15I      -0.092400
     13 C4          -2.3970    -0.3530     0.1140 c6         1 15I      -0.043000
     14 C3          -1.2480    -1.3000     0.4780 c6         1 15I      -0.092400
     15 C2          -0.1460    -0.6320     1.2930 c6         1 15I       0.212800
     16 C8          -3.2440    -0.0430     1.3580 c6         1 15I       0.165800
     17 N2          -4.3990     0.7620     1.0120 n7         1 15I      -0.865400
     18 C7          -5.3040     0.0530     0.1270 c6         1 15I       0.159800
     19 C6          -4.5920    -0.2700    -1.1780 c6         1 15I      -0.073400
     20 C5          -3.3110    -1.0510    -0.9030 c6         1 15I      -0.069400
     21 H12          4.3290    -2.9300     0.8190 h5         1 15I       0.064800
     22 H4           5.4970    -1.3170    -0.7340 hn         1 15I       0.369000
     23 H            3.0920     2.6490    -2.0440 h5         1 15I       0.045100
     24 H101        -1.0560     1.8520     1.3200 h1         1 15I       0.069700
     25 H102        -0.2540     2.3910    -0.1460 h1         1 15I       0.069700
     26 H21C         0.6570    -1.3330     1.4940 h1         1 15I       0.069700
     27 H22C        -0.5290    -0.2980     2.2630 h1         1 15I       0.069700
     28 H91C        -2.5850     1.6850    -0.6110 hc         1 15I       0.055700
     29 H92C        -1.4180     0.7100    -1.4900 hc         1 15I       0.055700
     30 H31C        -1.6290    -2.1620     1.0350 hc         1 15I       0.055700
     31 H32C        -0.8050    -1.6960    -0.4430 hc         1 15I       0.055700
     32 H81C        -3.5300    -1.0050     1.8190 h1         1 15I       0.028200
     33 H82C        -2.6640     0.5000     2.1080 h1         1 15I       0.028200
     34 H51C        -2.7580    -1.2260    -1.8320 hc         1 15I       0.039700
     35 H52C        -3.5750    -2.0400    -0.5100 hc         1 15I       0.039700
     36 H2          -4.8860     1.0290     1.8570 hn         1 15I       0.412000
     37 H71C        -5.6700    -0.8880     0.5720 h1         1 15I       0.027700
     38 H72C        -6.1800     0.6780    -0.0610 h1         1 15I       0.027700
     39 H61C        -5.2540    -0.8510    -1.8250 hc         1 15I       0.046700
     40 H62C        -4.3640     0.6580    -1.7080 hc         1 15I       0.046700
@<TRIPOS>BOND
     1     1     2 2   
     2     1     3 1   
     3     1    21 1   
     4     2     7 1   
     5     3     4 1   
     6     3    22 1   
     7     4     5 ar  
     8     4     7 ar  
     9     5     6 ar  
    10     6     9 ar  
    11     6    23 1   
    12     7     8 ar  
    13     8     9 ar  
    14     8    10 1   
    15    10    11 1   
    16    10    15 1   
    17    11    12 1   
    18    11    24 1   
    19    11    25 1   
    20    12    13 1   
    21    12    28 1   
    22    12    29 1   
    23    13    14 1   
    24    13    16 1   
    25    13    20 1   
    26    14    15 1   
    27    14    30 1   
    28    14    31 1   
    29    15    26 1   
    30    15    27 1   
    31    16    17 1   
    32    16    32 1   
    33    16    33 1   
    34    17    18 1   
    35    17    36 1   
    36    18    19 1   
    37    18    37 1   
    38    18    38 1   
    39    19    20 1   
    40    19    39 1   
    41    19    40 1   
    42    20    34 1   
    43    20    35 1   
@<TRIPOS>SUBSTRUCTURE
     1 15I         1 TEMP              0 ****  ****    0 ROOT
