@<TRIPOS>MOLECULE
15J
   56    60     1     0     0
SMALL
No Charge or Current Charge


@<TRIPOS>ATOM
      1 O2          -7.8280    -3.0910    -1.2110 oh         1 15J      -0.662000
      2 C24         -6.4060    -2.9850    -1.0660 c3         1 15J       0.167600
      3 C21         -5.9960    -1.7610    -0.1960 c6         1 15J      -0.065700
      4 C22         -4.4680    -1.7520     0.0780 c6         1 15J      -0.075400
      5 C23         -4.0560    -0.5300     0.9320 c6         1 15J       0.197300
      6 C20         -6.4100    -0.4080    -0.8390 c6         1 15J      -0.075400
      7 C19         -5.9550     0.7980     0.0210 c6         1 15J       0.197300
      8 N2          -4.4900     0.7380     0.2890 nh         1 15J      -0.732300
      9 C4          -3.7350     1.9160     0.4940 ca         1 15J       0.552900
     10 N1          -4.4200     2.9290     1.0730 nb         1 15J      -0.707000
     11 C3          -3.7590     4.0840     1.3120 ca         1 15J       0.332900
     12 C2          -2.4050     4.2780     0.9840 ca         1 15J      -0.158000
     13 C1          -1.6870     3.2350     0.3760 ca         1 15J      -0.137000
     14 C5          -2.3600     2.0230     0.1300 ca         1 15J       0.069100
     15 O1          -1.7000     0.9850    -0.5030 os         1 15J      -0.229200
     16 C6          -0.4470     0.5570    -0.1270 ca         1 15J       0.055100
     17 C11         -0.0210     0.6220     1.2150 ca         1 15J      -0.086000
     18 C10          1.2600     0.1580     1.5670 ca         1 15J      -0.149500
     19 C7           0.4010     0.0050    -1.1010 ca         1 15J      -0.086000
     20 C8           1.6810    -0.4560    -0.7420 ca         1 15J      -0.149500
     21 C9           2.1220    -0.3710     0.5910 ca         1 15J       0.323000
     22 N3           3.3770    -0.8370     0.9770 nu         1 15J      -0.908200
     23 C12          4.5900    -0.8240     0.3670 cc         1 15J       0.660700
     24 N5           5.7240    -1.3460     0.9520 na         1 15J      -0.354600
     25 C14          6.7420    -1.1310     0.0740 ca         1 15J      -0.079200
     26 C18          8.0980    -1.4630     0.1610 ca         1 15J      -0.111000
     27 C17          8.9240    -1.1040    -0.9250 ca         1 15J      -0.102000
     28 C16          8.3770    -0.4350    -2.0480 ca         1 15J      -0.126000
     29 C15          7.0000    -0.1190    -2.0930 ca         1 15J      -0.063000
     30 C13          6.1980    -0.4860    -1.0020 ca         1 15J       0.098400
     31 N4           4.8310    -0.2780    -0.8300 nd         1 15J      -0.630100
     32 H1          -7.9990    -3.8840    -1.7670 ho         1 15J       0.441000
     33 H2          -6.0150    -3.8950    -0.5920 h1         1 15J       0.016700
     34 H3          -5.9310    -2.8940    -2.0520 h1         1 15J       0.016700
     35 H4          -6.5190    -1.8710     0.7640 hc         1 15J       0.056700
     36 H5          -4.1700    -2.6740     0.5950 hc         1 15J       0.051700
     37 H6          -3.9150    -1.7330    -0.8720 hc         1 15J       0.051700
     38 H7          -4.5130    -0.6150     1.9300 h1         1 15J       0.042950
     39 H8          -2.9670    -0.5480     1.0770 h1         1 15J       0.042950
     40 H9          -5.9700    -0.3220    -1.8420 hc         1 15J       0.051700
     41 H10         -7.4990    -0.3640    -0.9710 hc         1 15J       0.051700
     42 H11         -6.2120     1.7220    -0.5180 h1         1 15J       0.042950
     43 H12         -6.5120     0.8010     0.9700 h1         1 15J       0.042950
     44 H13         -4.3340     4.8820     1.7800 h4         1 15J       0.019100
     45 H14         -1.9290     5.2310     1.1950 ha         1 15J       0.124000
     46 H15         -0.6430     3.3650     0.0980 ha         1 15J       0.131000
     47 H16         -0.6760     1.0220     1.9850 ha         1 15J       0.129500
     48 H17          1.5820     0.2140     2.6040 ha         1 15J       0.136000
     49 H18          0.0660    -0.0650    -2.1330 ha         1 15J       0.129500
     50 H19          2.3220    -0.8900    -1.5030 ha         1 15J       0.136000
     51 H20          3.4610    -1.0470     1.9660 hn         1 15J       0.494000
     52 H21          5.7730    -1.8060     1.8490 hn         1 15J       0.354000
     53 H22          8.5020    -1.9760     1.0310 ha         1 15J       0.115000
     54 H23          9.9860    -1.3420    -0.9000 ha         1 15J       0.113000
     55 H24          9.0210    -0.1610    -2.8810 ha         1 15J       0.114000
     56 H25          6.5710     0.3940    -2.9490 ha         1 15J       0.128000
@<TRIPOS>BOND
     1     1     2 1   
     2     1    32 1   
     3     2     3 1   
     4     2    33 1   
     5     2    34 1   
     6     3     4 1   
     7     3     6 1   
     8     3    35 1   
     9     4     5 1   
    10     4    36 1   
    11     4    37 1   
    12     5     8 1   
    13     5    38 1   
    14     5    39 1   
    15     6     7 1   
    16     6    40 1   
    17     6    41 1   
    18     7     8 1   
    19     7    42 1   
    20     7    43 1   
    21     8     9 1   
    22     9    10 ar  
    23     9    14 ar  
    24    10    11 ar  
    25    11    12 ar  
    26    11    44 1   
    27    12    13 ar  
    28    12    45 1   
    29    13    14 ar  
    30    13    46 1   
    31    14    15 1   
    32    15    16 1   
    33    16    17 ar  
    34    16    19 ar  
    35    17    18 ar  
    36    17    47 1   
    37    18    21 ar  
    38    18    48 1   
    39    19    20 ar  
    40    19    49 1   
    41    20    21 ar  
    42    20    50 1   
    43    21    22 1   
    44    22    23 1   
    45    22    51 1   
    46    23    24 1   
    47    23    31 2   
    48    24    25 1   
    49    24    52 1   
    50    25    26 ar  
    51    25    30 ar  
    52    26    27 ar  
    53    26    53 1   
    54    27    28 ar  
    55    27    54 1   
    56    28    29 ar  
    57    28    55 1   
    58    29    30 ar  
    59    29    56 1   
    60    30    31 1   
@<TRIPOS>SUBSTRUCTURE
     1 15J         1 TEMP              0 ****  ****    0 ROOT
