@<TRIPOS>MOLECULE
15J
   56    60     1     0     0
SMALL
bcc


@<TRIPOS>ATOM
      1 O2          -8.3360    -2.5300    -1.1990 oh         1 15J      -0.599800
      2 C24         -7.0030    -2.7730    -0.8030 c3         1 15J       0.144400
      3 C21         -6.4180    -1.5170    -0.1860 c6         1 15J      -0.065700
      4 C22         -5.0030    -1.7800     0.3210 c6         1 15J      -0.075400
      5 C23         -4.3940    -0.5240     0.9160 c6         1 15J       0.197300
      6 C20         -6.3830    -0.3390    -1.1540 c6         1 15J      -0.075400
      7 C19         -5.7370     0.8840    -0.5210 c6         1 15J       0.197300
      8 N2          -4.3940     0.5690    -0.0580 nh         1 15J      -0.732300
      9 C4          -3.5920     1.6610     0.2650 ca         1 15J       0.618200
     10 N1          -4.1600     2.8370     0.4710 nb         1 15J      -0.707000
     11 C3          -3.4120     3.8980     0.7650 ca         1 15J       0.398200
     12 C2          -2.0420     3.8340     0.8910 ca         1 15J      -0.241300
     13 C1          -1.4160     2.6120     0.6560 ca         1 15J      -0.155000
     14 C5          -2.1860     1.5190     0.3150 ca         1 15J       0.003800
     15 O1          -1.6750     0.3060    -0.0240 os         1 15J      -0.229200
     16 C6          -0.3520     0.0500     0.2550 ca         1 15J       0.055100
     17 C11          0.0280    -0.3300     1.5340 ca         1 15J      -0.104000
     18 C10          1.3540    -0.6120     1.7990 ca         1 15J      -0.167500
     19 C7           0.5930     0.1430    -0.7490 ca         1 15J      -0.104000
     20 C8           1.9270    -0.1430    -0.4900 ca         1 15J      -0.167500
     21 C9           2.3230    -0.5180     0.7940 ca         1 15J       0.184600
     22 N3           3.6310    -0.8240     1.1510 nu         1 15J      -0.714600
     23 C12          4.7660    -0.6880     0.4200 cc         1 15J       0.660700
     24 N5           5.9640    -1.0310     0.9720 na         1 15J      -0.304300
     25 C14          6.9280    -0.7830     0.0250 ca         1 15J      -0.079200
     26 C18          8.3050    -0.9340     0.0270 ca         1 15J      -0.129000
     27 C17          8.9760    -0.5700    -1.1340 ca         1 15J      -0.120000
     28 C16          8.2880    -0.0760    -2.2460 ca         1 15J      -0.144000
     29 C15          6.9070     0.0700    -2.2370 ca         1 15J      -0.081000
     30 C13          6.2190    -0.2890    -1.0830 ca         1 15J       0.098400
     31 N4           4.8710    -0.2430    -0.8050 nd         1 15J      -0.630100
     32 H1          -8.6910    -3.3410    -1.5720 ho         1 15J       0.402000
     33 H2          -6.9510    -3.5890    -0.0700 h1         1 15J       0.016700
     34 H3          -6.3800    -3.0740    -1.6570 h1         1 15J       0.016700
     35 H4          -7.0350    -1.2370     0.6780 hc         1 15J       0.056700
     36 H5          -5.0060    -2.5630     1.0840 hc         1 15J       0.051700
     37 H6          -4.3720    -2.1330    -0.5010 hc         1 15J       0.051700
     38 H7          -4.9650    -0.2290     1.8090 h1         1 15J       0.042950
     39 H8          -3.3790    -0.7330     1.2450 h1         1 15J       0.042950
     40 H9          -5.8240    -0.6240    -2.0520 hc         1 15J       0.051700
     41 H10         -7.3900    -0.0680    -1.4770 hc         1 15J       0.051700
     42 H11         -5.6770     1.6910    -1.2510 h1         1 15J       0.042950
     43 H12         -6.3710     1.2480     0.3010 h1         1 15J       0.042950
     44 H13         -3.9400     4.8330     0.9140 h4         1 15J       0.019100
     45 H14         -1.4640     4.7090     1.1530 ha         1 15J       0.142000
     46 H15         -0.3370     2.5390     0.7100 ha         1 15J       0.149000
     47 H16         -0.7080    -0.4060     2.3260 ha         1 15J       0.147500
     48 H17          1.6430    -0.9080     2.8010 ha         1 15J       0.154000
     49 H18          0.2950     0.4360    -1.7480 ha         1 15J       0.147500
     50 H19          2.6540    -0.0660    -1.2840 ha         1 15J       0.154000
     51 H20          3.7570    -1.1300     2.1030 hn         1 15J       0.438800
     52 H21          6.1140    -1.4110     1.8940 hn         1 15J       0.303700
     53 H22          8.8370    -1.3150     0.8890 ha         1 15J       0.133000
     54 H23         10.0530    -0.6690    -1.1760 ha         1 15J       0.131000
     55 H24          8.8450     0.2000    -3.1320 ha         1 15J       0.132000
     56 H25          6.3800     0.4540    -3.1000 ha         1 15J       0.146000
@<TRIPOS>BOND
     1     1     2 1   
     2     1    32 1   
     3     2     3 1   
     4     2    33 1   
     5     2    34 1   
     6     3     4 1   
     7     3     6 1   
     8     3    35 1   
     9     4     5 1   
    10     4    36 1   
    11     4    37 1   
    12     5     8 1   
    13     5    38 1   
    14     5    39 1   
    15     6     7 1   
    16     6    40 1   
    17     6    41 1   
    18     7     8 1   
    19     7    42 1   
    20     7    43 1   
    21     8     9 1   
    22     9    10 ar  
    23     9    14 ar  
    24    10    11 ar  
    25    11    12 ar  
    26    11    44 1   
    27    12    13 ar  
    28    12    45 1   
    29    13    14 ar  
    30    13    46 1   
    31    14    15 1   
    32    15    16 1   
    33    16    17 ar  
    34    16    19 ar  
    35    17    18 ar  
    36    17    47 1   
    37    18    21 ar  
    38    18    48 1   
    39    19    20 ar  
    40    19    49 1   
    41    20    21 ar  
    42    20    50 1   
    43    21    22 1   
    44    22    23 1   
    45    22    51 1   
    46    23    24 1   
    47    23    31 2   
    48    24    25 1   
    49    24    52 1   
    50    25    26 ar  
    51    25    30 ar  
    52    26    27 ar  
    53    26    53 1   
    54    27    28 ar  
    55    27    54 1   
    56    28    29 ar  
    57    28    55 1   
    58    29    30 ar  
    59    29    56 1   
    60    30    31 1   
@<TRIPOS>SUBSTRUCTURE
     1 15J         1 TEMP              0 ****  ****    0 ROOT
