@<TRIPOS>MOLECULE
15L
   20    20     1     0     0
SMALL
bcc


@<TRIPOS>ATOM
      1 C1           1.0360    -1.3820    -0.0970 c          1 15L       0.721600
      2 O1           1.5670    -2.4540    -0.2370 o          1 15L      -0.630500
      3 C2           1.8120    -0.0830    -0.2800 c6         1 15L      -0.000900
      4 O2           3.1410    -0.2390     0.1310 oh         1 15L      -0.605800
      5 C3           1.1940     1.0670     0.4990 c6         1 15L       0.155100
      6 O3           1.8040     2.2910     0.1920 oh         1 15L      -0.582800
      7 C4          -0.2840     1.1450     0.1720 c6         1 15L       0.146100
      8 O4          -0.4360     1.4140    -1.1980 oh         1 15L      -0.611800
      9 C5          -0.9520    -0.1520     0.5960 c6         1 15L      -0.024900
     10 O5          -0.2610    -1.3350     0.1530 os         1 15L      -0.370900
     11 C6          -2.4230    -0.2640     0.1230 c          1 15L       0.939600
     12 O6A         -2.8840    -1.4000    -0.0270 o          1 15L      -0.805300
     13 O6B         -3.0070     0.8300    -0.0260 o          1 15L      -0.805300
     14 H2           1.7490     0.1520    -1.3520 h1         1 15L       0.079700
     15 HO2          3.6150    -0.7610    -0.5230 ho         1 15L       0.414000
     16 H3           1.2770     0.8440     1.5750 h1         1 15L       0.035700
     17 HO3          2.7300     2.2390     0.4480 ho         1 15L       0.400000
     18 H4          -0.7300     1.9380     0.7860 h1         1 15L       0.060700
     19 HO4         -1.3870     1.4790    -1.3520 ho         1 15L       0.446000
     20 H5          -0.9500    -0.1820     1.6930 h1         1 15L       0.040700
@<TRIPOS>BOND
     1     1     2 2   
     2     1     3 1   
     3     1    10 1   
     4     3     4 1   
     5     3     5 1   
     6     3    14 1   
     7     4    15 1   
     8     5     6 1   
     9     5     7 1   
    10     5    16 1   
    11     6    17 1   
    12     7     8 1   
    13     7     9 1   
    14     7    18 1   
    15     8    19 1   
    16     9    10 1   
    17     9    11 1   
    18     9    20 1   
    19    11    12 1   
    20    11    13 1   
@<TRIPOS>SUBSTRUCTURE
     1 15L         1 TEMP              0 ****  ****    0 ROOT
