@<TRIPOS>MOLECULE
15L
   20    20     1     0     0
SMALL
No Charge or Current Charge


@<TRIPOS>ATOM
      1 C1           1.0250    -1.1870    -0.6820 c          1 15L       0.646100
      2 O1           1.5490    -2.1440    -1.2410 o          1 15L      -0.555000
      3 C2           1.8800     0.0700    -0.2640 c6         1 15L       0.022300
      4 O2           3.1920    -0.2850     0.2760 oh         1 15L      -0.728000
      5 C3           1.1450     1.0530     0.6880 c6         1 15L       0.178300
      6 O3           1.8470     2.3080     0.7240 oh         1 15L      -0.645000
      7 C4          -0.3480     1.2070     0.2740 c6         1 15L       0.169300
      8 O4          -0.4850     1.6910    -1.0840 oh         1 15L      -0.734000
      9 C5          -0.9750    -0.1940     0.4270 c6         1 15L      -0.001700
     10 O5          -0.3400    -1.1460    -0.4790 os         1 15L      -0.394100
     11 C6          -2.5280    -0.1200     0.2840 c          1 15L       0.729000
     12 O6A         -3.1580    -0.3000     1.3170 o          1 15L      -0.700000
     13 O6B         -2.9910    -0.4860    -0.7880 o          1 15L      -0.700000
     14 H2           2.0120     0.6010    -1.2190 h1         1 15L       0.079700
     15 HO2          3.5460    -1.0240    -0.2790 ho         1 15L       0.513000
     16 H3           1.1620     0.6140     1.6970 h1         1 15L       0.035700
     17 HO3          2.7980     2.0610     0.7400 ho         1 15L       0.439000
     18 H4          -0.8390     1.8950     0.9800 h1         1 15L       0.060700
     19 HO4         -1.1020     1.0760    -1.5490 ho         1 15L       0.545000
     20 H5          -0.7800    -0.5410     1.4530 h1         1 15L       0.040700
@<TRIPOS>BOND
     1     1     2 2   
     2     1     3 1   
     3     1    10 1   
     4     3     4 1   
     5     3     5 1   
     6     3    14 1   
     7     4    15 1   
     8     5     6 1   
     9     5     7 1   
    10     5    16 1   
    11     6    17 1   
    12     7     8 1   
    13     7     9 1   
    14     7    18 1   
    15     8    19 1   
    16     9    10 1   
    17     9    11 1   
    18     9    20 1   
    19    11    12 1   
    20    11    13 1   
@<TRIPOS>SUBSTRUCTURE
     1 15L         1 TEMP              0 ****  ****    0 ROOT
