@<TRIPOS>MOLECULE
15M
   67    68     1     0     0
SMALL
No Charge or Current Charge


@<TRIPOS>ATOM
      1 C1           3.9380     2.2910    -1.1800 c          1 15M       0.597100
      2 C2           3.6150     1.0040    -1.9450 c3         1 15M      -0.159400
      3 C3           4.1440    -0.2450    -1.2030 c3         1 15M      -0.061400
      4 C4           3.6480    -1.5690    -1.8240 c3         1 15M      -0.048200
      5 C5           4.0920    -2.7870    -1.0350 c2         1 15M      -0.219200
      6 C6           3.4570    -3.3260     0.0210 c2         1 15M      -0.213200
      7 C7           2.1930    -2.7990     0.6780 c3         1 15M      -0.034200
      8 C8           0.8900    -3.4640     0.1590 c5         1 15M      -0.047700
      9 C9           0.7350    -4.9960     0.4500 c5         1 15M       0.174300
     10 C10         -0.8040    -5.2560     0.3170 c5         1 15M      -0.154400
     11 C11         -1.4420    -3.8590     0.0640 c5         1 15M       0.179300
     12 C12         -0.4310    -2.9070     0.7610 c5         1 15M      -0.033500
     13 C13         -0.6520    -1.4660     0.2920 c2         1 15M      -0.191200
     14 C14         -0.2660    -0.4460     1.0830 c2         1 15M      -0.250200
     15 C15         -0.3730     1.0270     0.7660 c3         1 15M       0.204500
     16 C16         -1.8340     1.4870     0.5730 c3         1 15M      -0.108400
     17 C17         -1.9910     3.0140     0.3880 c3         1 15M      -0.028100
     18 C18         -3.4510     3.4270     0.2570 ca         1 15M      -0.081300
     19 C19         -4.0770     3.4300    -1.0050 ca         1 15M      -0.107000
     20 C20         -5.4250     3.8070    -1.1270 ca         1 15M      -0.108500
     21 C21         -6.1570     4.1830     0.0130 ca         1 15M      -0.110000
     22 C22         -5.5380     4.1800     1.2750 ca         1 15M      -0.108500
     23 C23         -4.1890     3.8020     1.3970 ca         1 15M      -0.107000
     24 C24          1.5840     4.4840     0.8390 c3         1 15M      -0.109100
     25 C25          2.9550     4.0900     0.2660 c3         1 15M       0.106000
     26 N            2.8810     2.8500    -0.5010 ns         1 15M      -0.511900
     27 O1           5.0480     2.8030    -1.1930 o          1 15M      -0.620100
     28 O9           1.1890    -5.3620     1.7550 oh         1 15M      -0.653000
     29 O11         -2.7540    -3.7680     0.6140 oh         1 15M      -0.648000
     30 O15          0.3720     1.2760    -0.4230 oh         1 15M      -0.678000
     31 H21A         2.5290     0.9050    -2.0550 hc         1 15M       0.056700
     32 H22A         4.0860     1.0470    -2.9340 hc         1 15M       0.056700
     33 H31          5.2410    -0.2320    -1.1960 hc         1 15M       0.054700
     34 H32          3.8210    -0.1990    -0.1560 hc         1 15M       0.054700
     35 H41          2.5530    -1.5430    -1.8850 hc         1 15M       0.039200
     36 H42          4.0060    -1.6430    -2.8580 hc         1 15M       0.039200
     37 H5           5.0070    -3.2500    -1.4110 ha         1 15M       0.170000
     38 H6           3.8640    -4.2180     0.5020 ha         1 15M       0.173000
     39 H71          2.2690    -2.9120     1.7660 hc         1 15M       0.057200
     40 H72          2.1260    -1.7190     0.5140 hc         1 15M       0.057200
     41 H8           0.8960    -3.3050    -0.9270 hc         1 15M       0.049700
     42 H9           1.2920    -5.5730    -0.3020 h1         1 15M       0.043700
     43 H101        -1.0240    -5.9430    -0.5080 hc         1 15M       0.051700
     44 H102        -1.2100    -5.7200     1.2240 hc         1 15M       0.051700
     45 H11         -1.4740    -3.6540    -1.0160 h1         1 15M       0.026700
     46 H12         -0.4590    -3.0000     1.8540 hc         1 15M       0.087700
     47 H13         -1.1130    -1.2690    -0.6770 ha         1 15M       0.163000
     48 H14          0.1940    -0.6450     2.0530 ha         1 15M       0.182000
     49 H15          0.0560     1.5960     1.6040 h1         1 15M       0.077700
     50 H161        -2.2750     0.9710    -0.2880 hc         1 15M       0.053700
     51 H162        -2.4140     1.1800     1.4520 hc         1 15M       0.053700
     52 H171        -1.5290     3.5290     1.2400 hc         1 15M       0.050200
     53 H172        -1.4320     3.3340    -0.5000 hc         1 15M       0.050200
     54 H19         -3.5180     3.1380    -1.8910 ha         1 15M       0.109500
     55 H20         -5.9040     3.8080    -2.1040 ha         1 15M       0.112500
     56 H21         -7.2000     4.4740    -0.0810 ha         1 15M       0.113000
     57 H22         -6.1030     4.4690     2.1580 ha         1 15M       0.112500
     58 H23         -3.7190     3.8000     2.3770 ha         1 15M       0.109500
     59 H241         1.6610     5.4270     1.3920 hc         1 15M       0.039033
     60 H242         0.8510     4.6140     0.0340 hc         1 15M       0.039033
     61 H243         1.2170     3.7130     1.5260 hc         1 15M       0.039033
     62 H251         3.3200     4.8920    -0.3890 h1         1 15M       0.047200
     63 H252         3.6730     3.9600     1.0870 h1         1 15M       0.047200
     64 HN           1.9970     2.3440    -0.5270 hn         1 15M       0.335500
     65 HO9          1.0510    -6.3310     1.8400 ho         1 15M       0.440000
     66 H1          -3.3040    -4.4270     0.1370 ho         1 15M       0.441000
     67 H2           0.1080     0.5700    -1.0490 ho         1 15M       0.448000
@<TRIPOS>BOND
     1     1     2 1   
     2     1    26 1   
     3     1    27 2   
     4     2     3 1   
     5     2    31 1   
     6     2    32 1   
     7     3     4 1   
     8     3    33 1   
     9     3    34 1   
    10     4     5 1   
    11     4    35 1   
    12     4    36 1   
    13     5     6 2   
    14     5    37 1   
    15     6     7 1   
    16     6    38 1   
    17     7     8 1   
    18     7    39 1   
    19     7    40 1   
    20     8     9 1   
    21     8    12 1   
    22     8    41 1   
    23     9    10 1   
    24     9    28 1   
    25     9    42 1   
    26    10    11 1   
    27    10    43 1   
    28    10    44 1   
    29    11    12 1   
    30    11    29 1   
    31    11    45 1   
    32    12    13 1   
    33    12    46 1   
    34    13    14 2   
    35    13    47 1   
    36    14    15 1   
    37    14    48 1   
    38    15    16 1   
    39    15    30 1   
    40    15    49 1   
    41    16    17 1   
    42    16    50 1   
    43    16    51 1   
    44    17    18 1   
    45    17    52 1   
    46    17    53 1   
    47    18    19 ar  
    48    18    23 ar  
    49    19    20 ar  
    50    19    54 1   
    51    20    21 ar  
    52    20    55 1   
    53    21    22 ar  
    54    21    56 1   
    55    22    23 ar  
    56    22    57 1   
    57    23    58 1   
    58    24    25 1   
    59    24    59 1   
    60    24    60 1   
    61    24    61 1   
    62    25    26 1   
    63    25    62 1   
    64    25    63 1   
    65    26    64 1   
    66    28    65 1   
    67    29    66 1   
    68    30    67 1   
@<TRIPOS>SUBSTRUCTURE
     1 15M         1 TEMP              0 ****  ****    0 ROOT
