@<TRIPOS>MOLECULE
15M
   67    68     1     0     0
SMALL
abcg2


@<TRIPOS>ATOM
      1 C1           3.8170     2.0400    -1.1300 c          1 15M       0.597100
      2 C2           3.5440     0.6460    -1.6470 c3         1 15M      -0.159400
      3 C3           4.2390    -0.4260    -0.8110 c3         1 15M      -0.061400
      4 C4           3.8530    -1.8270    -1.2920 c3         1 15M      -0.048200
      5 C5           4.3410    -2.9290    -0.3980 c2         1 15M      -0.219200
      6 C6           3.6510    -3.4280     0.6270 c2         1 15M      -0.213200
      7 C7           2.2860    -2.9510     1.0370 c3         1 15M      -0.034200
      8 C8           1.1550    -3.5470     0.2040 c5         1 15M      -0.047700
      9 C9           0.8600    -5.0320     0.3950 c5         1 15M       0.174300
     10 C10         -0.4830    -5.2010    -0.3280 c5         1 15M      -0.154400
     11 C11         -1.1730    -3.8140    -0.3160 c5         1 15M       0.179300
     12 C12         -0.2100    -2.8850     0.4360 c5         1 15M      -0.033500
     13 C13         -0.2460    -1.4620    -0.0120 c2         1 15M      -0.191200
     14 C14         -0.5920    -0.4380     0.7600 c2         1 15M      -0.250200
     15 C15         -0.6200     1.0110     0.3680 c3         1 15M       0.204500
     16 C16         -2.0440     1.5590     0.4680 c3         1 15M      -0.108400
     17 C17         -2.1360     3.0670     0.2300 c3         1 15M      -0.028100
     18 C18         -3.5390     3.5740     0.4100 ca         1 15M      -0.081300
     19 C19         -4.3840     3.7540    -0.6820 ca         1 15M      -0.107000
     20 C20         -5.6930     4.1880    -0.5090 ca         1 15M      -0.108500
     21 C21         -6.1780     4.4490     0.7650 ca         1 15M      -0.110000
     22 C22         -5.3450     4.2720     1.8630 ca         1 15M      -0.108500
     23 C23         -4.0380     3.8390     1.6840 ca         1 15M      -0.107000
     24 C24          1.4530     4.5760     0.2030 c3         1 15M      -0.109100
     25 C25          2.8100     4.1080    -0.2890 c3         1 15M       0.106000
     26 N            2.7330     2.7470    -0.7800 ns         1 15M      -0.511900
     27 O1           4.9570     2.4820    -1.0270 o          1 15M      -0.620100
     28 O9           0.7630    -5.2870     1.7810 oh         1 15M      -0.653000
     29 O11         -2.4360    -3.7800     0.3080 oh         1 15M      -0.648000
     30 O15         -0.0390     1.2720    -0.8900 oh         1 15M      -0.678000
     31 H21A         2.4710     0.4440    -1.6720 hc         1 15M       0.056700
     32 H22A         3.8960     0.5940    -2.6820 hc         1 15M       0.056700
     33 H31          5.3230    -0.2980    -0.8500 hc         1 15M       0.054700
     34 H32          3.9480    -0.3120     0.2370 hc         1 15M       0.054700
     35 H41          2.7640    -1.8730    -1.3800 hc         1 15M       0.039200
     36 H42          4.2410    -1.9780    -2.3030 hc         1 15M       0.039200
     37 H5           5.3280    -3.3300    -0.6070 ha         1 15M       0.170000
     38 H6           4.0900    -4.2340     1.2070 ha         1 15M       0.173000
     39 H71          2.1160    -3.1650     2.0940 hc         1 15M       0.057200
     40 H72          2.2320    -1.8640     0.9410 hc         1 15M       0.057200
     41 H8           1.4060    -3.4190    -0.8580 hc         1 15M       0.049700
     42 H9           1.6400    -5.6580    -0.0560 h1         1 15M       0.043700
     43 H101        -0.3100    -5.5260    -1.3550 hc         1 15M       0.051700
     44 H102        -1.1050    -5.9660     0.1450 hc         1 15M       0.051700
     45 H11         -1.2580    -3.4620    -1.3530 h1         1 15M       0.026700
     46 H12         -0.4480    -2.9390     1.5040 hc         1 15M       0.087700
     47 H13          0.0720    -1.2870    -1.0390 ha         1 15M       0.163000
     48 H14         -0.8980    -0.6290     1.7860 ha         1 15M       0.182000
     49 H15          0.0000     1.5600     1.0880 h1         1 15M       0.077700
     50 H161        -2.6880     1.0280    -0.2420 hc         1 15M       0.053700
     51 H162        -2.4330     1.3270     1.4640 hc         1 15M       0.053700
     52 H171        -1.4670     3.5790     0.9280 hc         1 15M       0.050200
     53 H172        -1.7810     3.3040    -0.7750 hc         1 15M       0.050200
     54 H19         -4.0150     3.5540    -1.6810 ha         1 15M       0.109500
     55 H20         -6.3320     4.3250    -1.3720 ha         1 15M       0.112500
     56 H21         -7.1960     4.7890     0.9030 ha         1 15M       0.113000
     57 H22         -5.7130     4.4760     2.8610 ha         1 15M       0.112500
     58 H23         -3.3950     3.7090     2.5470 ha         1 15M       0.109500
     59 H241         1.5120     5.6110     0.5350 hc         1 15M       0.039033
     60 H242         0.6990     4.5190    -0.5830 hc         1 15M       0.039033
     61 H243         1.1080     3.9750     1.0460 hc         1 15M       0.039033
     62 H251         3.1700     4.7740    -1.0780 h1         1 15M       0.047200
     63 H252         3.5370     4.1630     0.5240 h1         1 15M       0.047200
     64 HN           1.8180     2.3380    -0.9160 hn         1 15M       0.335500
     65 HO9          0.4970    -6.2030     1.8990 ho         1 15M       0.440000
     66 H1          -3.0420    -4.3150    -0.2120 ho         1 15M       0.441000
     67 H2          -0.5960     0.9010    -1.5840 ho         1 15M       0.448000
@<TRIPOS>BOND
     1     1     2 1   
     2     1    26 1   
     3     1    27 2   
     4     2     3 1   
     5     2    31 1   
     6     2    32 1   
     7     3     4 1   
     8     3    33 1   
     9     3    34 1   
    10     4     5 1   
    11     4    35 1   
    12     4    36 1   
    13     5     6 2   
    14     5    37 1   
    15     6     7 1   
    16     6    38 1   
    17     7     8 1   
    18     7    39 1   
    19     7    40 1   
    20     8     9 1   
    21     8    12 1   
    22     8    41 1   
    23     9    10 1   
    24     9    28 1   
    25     9    42 1   
    26    10    11 1   
    27    10    43 1   
    28    10    44 1   
    29    11    12 1   
    30    11    29 1   
    31    11    45 1   
    32    12    13 1   
    33    12    46 1   
    34    13    14 2   
    35    13    47 1   
    36    14    15 1   
    37    14    48 1   
    38    15    16 1   
    39    15    30 1   
    40    15    49 1   
    41    16    17 1   
    42    16    50 1   
    43    16    51 1   
    44    17    18 1   
    45    17    52 1   
    46    17    53 1   
    47    18    19 ar  
    48    18    23 ar  
    49    19    20 ar  
    50    19    54 1   
    51    20    21 ar  
    52    20    55 1   
    53    21    22 ar  
    54    21    56 1   
    55    22    23 ar  
    56    22    57 1   
    57    23    58 1   
    58    24    25 1   
    59    24    59 1   
    60    24    60 1   
    61    24    61 1   
    62    25    26 1   
    63    25    62 1   
    64    25    63 1   
    65    26    64 1   
    66    28    65 1   
    67    29    66 1   
    68    30    67 1   
@<TRIPOS>SUBSTRUCTURE
     1 15M         1 TEMP              0 ****  ****    0 ROOT
