@<TRIPOS>MOLECULE
15N
   20    21     1     0     0
SMALL
No Charge or Current Charge


@<TRIPOS>ATOM
      1 OAA         -3.6720     0.0080     0.9150 o          1 15N      -0.704000
      2 CAJ         -2.8730     0.2280     0.0130 c          1 15N       0.734000
      3 OAB         -3.0470     1.1880    -0.7280 o          1 15N      -0.704000
      4 CAM         -1.3990    -0.1630     0.3290 c6         1 15N      -0.021700
      5 OAI         -0.4390     0.9000     0.0670 os         1 15N      -0.291100
      6 CAL          0.8990     0.5610     0.0410 ca         1 15N       0.086100
      7 CAF          1.8700     1.5750     0.0960 ca         1 15N      -0.132000
      8 CAD          3.2360     1.2400     0.0930 ca         1 15N      -0.126000
      9 CAC          3.6330    -0.1080     0.0340 ca         1 15N      -0.144000
     10 CAE          2.6650    -1.1270    -0.0330 ca         1 15N      -0.125000
     11 CAK          1.2990    -0.7970    -0.0410 ca         1 15N       0.057100
     12 OAH          0.3590    -1.8050    -0.1290 os         1 15N      -0.358100
     13 CAG         -0.9950    -1.4260    -0.4610 c6         1 15N       0.129600
     14 H2          -1.3480    -0.4030     1.4010 h1         1 15N       0.044700
     15 H3           1.5630     2.6170     0.1510 ha         1 15N       0.121000
     16 H4           3.9880     2.0250     0.1410 ha         1 15N       0.095000
     17 H5           4.6900    -0.3640     0.0350 ha         1 15N       0.094000
     18 H6           2.9720    -2.1690    -0.0870 ha         1 15N       0.108000
     19 H7          -1.6710    -2.2610    -0.2300 h1         1 15N       0.068200
     20 H8          -1.0560    -1.2220    -1.5400 h1         1 15N       0.068200
@<TRIPOS>BOND
     1     1     2 1   
     2     2     3 1   
     3     2     4 1   
     4     4     5 1   
     5     4    13 1   
     6     4    14 1   
     7     5     6 1   
     8     6     7 ar  
     9     6    11 ar  
    10     7     8 ar  
    11     7    15 1   
    12     8     9 ar  
    13     8    16 1   
    14     9    10 ar  
    15     9    17 1   
    16    10    11 ar  
    17    10    18 1   
    18    11    12 1   
    19    12    13 1   
    20    13    19 1   
    21    13    20 1   
@<TRIPOS>SUBSTRUCTURE
     1 15N         1 TEMP              0 ****  ****    0 ROOT
