@<TRIPOS>MOLECULE
15N
   20    21     1     0     0
SMALL
abcg2


@<TRIPOS>ATOM
      1 OAA         -3.6390    -0.5280     0.3320 o          1 15N      -0.704000
      2 CAJ         -2.7800     0.3290     0.0520 c          1 15N       0.734000
      3 OAB         -2.9460     1.4490    -0.4480 o          1 15N      -0.704000
      4 CAM         -1.3380    -0.1080     0.3820 c6         1 15N      -0.021700
      5 OAI         -0.4230     0.9260     0.0450 os         1 15N      -0.291100
      6 CAL          0.8760     0.5560     0.0280 ca         1 15N       0.086100
      7 CAF          1.8520     1.5450     0.0570 ca         1 15N      -0.132000
      8 CAD          3.1980     1.2090     0.0450 ca         1 15N      -0.126000
      9 CAC          3.5790    -0.1270     0.0140 ca         1 15N      -0.144000
     10 CAE          2.6110    -1.1200    -0.0230 ca         1 15N      -0.125000
     11 CAK          1.2620    -0.7890    -0.0170 ca         1 15N       0.057100
     12 OAH          0.3490    -1.7870    -0.0540 os         1 15N      -0.358100
     13 CAG         -0.9710    -1.3710    -0.3720 c6         1 15N       0.129600
     14 H2          -1.2670    -0.3090     1.4600 h1         1 15N       0.044700
     15 H3           1.5430     2.5830     0.0930 ha         1 15N       0.121000
     16 H4           3.9450     1.9910     0.0690 ha         1 15N       0.095000
     17 H5           4.6260    -0.3980     0.0080 ha         1 15N       0.094000
     18 H6           2.8930    -2.1660    -0.0580 ha         1 15N       0.108000
     19 H7          -1.6360    -2.1840    -0.0910 h1         1 15N       0.068200
     20 H8          -1.0590    -1.2060    -1.4530 h1         1 15N       0.068200
@<TRIPOS>BOND
     1     1     2 1   
     2     2     3 1   
     3     2     4 1   
     4     4     5 1   
     5     4    13 1   
     6     4    14 1   
     7     5     6 1   
     8     6     7 ar  
     9     6    11 ar  
    10     7     8 ar  
    11     7    15 1   
    12     8     9 ar  
    13     8    16 1   
    14     9    10 ar  
    15     9    17 1   
    16    10    11 ar  
    17    10    18 1   
    18    11    12 1   
    19    12    13 1   
    20    13    19 1   
    21    13    20 1   
@<TRIPOS>SUBSTRUCTURE
     1 15N         1 TEMP              0 ****  ****    0 ROOT
