@<TRIPOS>MOLECULE
15O
   18    19     1     0     0
SMALL
bcc


@<TRIPOS>ATOM
      1 C01          2.8840     0.8720     0.0010 ca         1 15O      -0.120000
      2 C02          1.9090     1.8890    -0.0110 ca         1 15O      -0.123000
      3 C03          0.5760     1.5780    -0.0140 ca         1 15O      -0.109000
      4 C04          0.1510     0.2290    -0.0040 ca         1 15O      -0.029000
      5 C05          1.1330    -0.7990     0.0080 ca         1 15O      -0.032000
      6 C06          2.5020    -0.4410     0.0100 ca         1 15O      -0.119000
      7 C07          0.7340    -2.1560     0.0180 ca         1 15O      -0.114000
      8 C08         -0.5910    -2.4900     0.0160 ca         1 15O      -0.121000
      9 C09         -1.5790    -1.4860     0.0040 ca         1 15O      -0.119000
     10 C10         -1.2100    -0.1710    -0.0060 ca         1 15O       0.040400
     11 CL1         -2.4540     1.0400    -0.0210 cl         1 15O      -0.114400
     12 H1           3.9340     1.1320     0.0020 ha         1 15O       0.133000
     13 H2           2.2170     2.9260    -0.0190 ha         1 15O       0.133000
     14 H3          -0.1560     2.3730    -0.0230 ha         1 15O       0.144000
     15 H4           3.2450    -1.2280     0.0190 ha         1 15O       0.132000
     16 H5           1.4950    -2.9260     0.0270 ha         1 15O       0.135000
     17 H6          -0.8950    -3.5280     0.0250 ha         1 15O       0.136000
     18 H7          -2.6250    -1.7600     0.0040 ha         1 15O       0.147000
@<TRIPOS>BOND
     1     1     2 ar  
     2     1     6 ar  
     3     1    12 1   
     4     2     3 ar  
     5     2    13 1   
     6     3     4 ar  
     7     3    14 1   
     8     4     5 ar  
     9     4    10 ar  
    10     5     6 ar  
    11     5     7 ar  
    12     6    15 1   
    13     7     8 ar  
    14     7    16 1   
    15     8     9 ar  
    16     8    17 1   
    17     9    10 ar  
    18     9    18 1   
    19    10    11 1   
@<TRIPOS>SUBSTRUCTURE
     1 15O         1 TEMP              0 ****  ****    0 ROOT
