@<TRIPOS>MOLECULE
15Q
   28    29     1     0     0
SMALL
bcc


@<TRIPOS>ATOM
      1 CAK         -2.3640     0.7690     0.5760 ca         1 15Q      -0.109000
      2 CAO         -3.6880     0.3970     0.5170 ca         1 15Q       0.030900
      3 FAD         -4.5710     0.9400     1.3790 f          1 15Q      -0.151900
      4 CAM         -4.1640    -0.5330    -0.4010 ca         1 15Q       0.118100
      5 OAB         -5.4520    -0.9060    -0.4710 oh         1 15Q      -0.485100
      6 CAG         -3.2440    -1.0910    -1.2840 ca         1 15Q      -0.148000
      7 CAI         -1.9080    -0.7280    -1.2350 ca         1 15Q      -0.081000
      8 CAR         -1.4480     0.2020    -0.3070 cp         1 15Q      -0.047000
      9 CAS         -0.0330     0.6320    -0.2740 cp         1 15Q      -0.083000
     10 CAP          1.0170    -0.2240     0.0320 ca         1 15Q       0.107400
     11 CL           0.6390    -1.8660     0.4450 cl         1 15Q      -0.099400
     12 CAJ          0.2900     1.9620    -0.5520 ca         1 15Q      -0.051000
     13 CAH          1.5900     2.4150    -0.5410 ca         1 15Q      -0.187000
     14 CAN          2.6350     1.5420    -0.2490 ca         1 15Q       0.213100
     15 OAC          3.8720     2.0340    -0.2620 oh         1 15Q      -0.502100
     16 CAQ          2.3590     0.1900     0.0510 ca         1 15Q      -0.260900
     17 CAF          3.4310    -0.7420     0.3820 ce         1 15Q       0.466800
     18 NAL          4.6420    -0.3480     0.3960 n2         1 15Q      -0.503200
     19 OAA          5.5300    -1.3160     0.7220 oh         1 15Q      -0.353500
     20 H1          -2.0490     1.4930     1.3180 ha         1 15Q       0.153000
     21 H2          -5.9820    -0.4600     0.2000 ho         1 15Q       0.440000
     22 H3          -3.5880    -1.8110    -2.0150 ha         1 15Q       0.153000
     23 H4          -1.2210    -1.1730    -1.9420 ha         1 15Q       0.144000
     24 H5          -0.5080     2.6520    -0.7920 ha         1 15Q       0.144000
     25 H6           1.8140     3.4500    -0.7660 ha         1 15Q       0.156000
     26 H7           4.5130     1.3220    -0.0350 ho         1 15Q       0.475000
     27 H8           3.1830    -1.7730     0.6160 h4         1 15Q       0.027800
     28 H11          6.3900    -0.8810     0.6950 ho         1 15Q       0.433000
@<TRIPOS>BOND
     1     1     2 ar  
     2     1     8 ar  
     3     1    20 1   
     4     2     3 1   
     5     2     4 ar  
     6     4     5 1   
     7     4     6 ar  
     8     5    21 1   
     9     6     7 ar  
    10     6    22 1   
    11     7     8 ar  
    12     7    23 1   
    13     8     9 1   
    14     9    10 ar  
    15     9    12 ar  
    16    10    11 1   
    17    10    16 ar  
    18    12    13 ar  
    19    12    24 1   
    20    13    14 ar  
    21    13    25 1   
    22    14    15 1   
    23    14    16 ar  
    24    15    26 1   
    25    16    17 1   
    26    17    18 2   
    27    17    27 1   
    28    18    19 1   
    29    19    28 1   
@<TRIPOS>SUBSTRUCTURE
     1 15Q         1 TEMP              0 ****  ****    0 ROOT
