@<TRIPOS>MOLECULE
15Q
   28    29     1     0     0
SMALL
No Charge or Current Charge


@<TRIPOS>ATOM
      1 CAK         -2.4210     0.8460     0.5260 ca         1 15Q      -0.091000
      2 CAO         -3.7680     0.4480     0.4980 ca         1 15Q       0.066000
      3 FAD         -4.6580     1.0540     1.3170 f          1 15Q      -0.187000
      4 CAM         -4.1900    -0.5730    -0.3780 ca         1 15Q       0.118100
      5 OAB         -5.4990    -0.9670    -0.4130 oh         1 15Q      -0.524100
      6 CAG         -3.2570    -1.1890    -1.2260 ca         1 15Q      -0.130000
      7 CAI         -1.9080    -0.7910    -1.1980 ca         1 15Q      -0.063000
      8 CAR         -1.4650     0.2250    -0.3150 cp         1 15Q      -0.047000
      9 CAS         -0.0380     0.6670    -0.2910 cp         1 15Q      -0.083000
     10 CAP          1.0370    -0.2310    -0.0330 ca         1 15Q       0.199000
     11 Cl           0.6700    -1.9210     0.3490 cl         1 15Q      -0.191000
     12 CAJ          0.2600     2.0260    -0.5200 ca         1 15Q      -0.033000
     13 CAH          1.5830     2.4790    -0.5040 ca         1 15Q      -0.169000
     14 CAN          2.6370     1.5920    -0.2600 ca         1 15Q       0.213100
     15 OAC          3.8990     2.1020    -0.2630 oh         1 15Q      -0.541100
     16 CAQ          2.3850     0.2160    -0.0280 ca         1 15Q      -0.260900
     17 CAF          3.4860    -0.7690     0.2570 ce         1 15Q       0.466800
     18 NAL          4.7030    -0.3890     0.5390 n2         1 15Q      -0.404700
     19 OAA          5.6210    -1.4390     0.7380 oh         1 15Q      -0.491000
     20 H1          -2.1120     1.6340     1.2080 ha         1 15Q       0.135000
     21 H2          -5.9960    -0.4270     0.2410 ho         1 15Q       0.479000
     22 H3          -3.5780    -1.9720    -1.9080 ha         1 15Q       0.135000
     23 H4          -1.1980    -1.2690    -1.8690 ha         1 15Q       0.126000
     24 H5          -0.5450     2.7310    -0.7180 ha         1 15Q       0.126000
     25 H6           1.7940     3.5310    -0.6840 ha         1 15Q       0.138000
     26 H7           4.5050     1.3700     0.0020 ho         1 15Q       0.514000
     27 H8           3.2510    -1.8320     0.1850 h4         1 15Q       0.027800
     28 H11          6.4860    -1.0070     0.9510 ho         1 15Q       0.472000
@<TRIPOS>BOND
     1     1     2 ar  
     2     1     8 ar  
     3     1    20 1   
     4     2     3 1   
     5     2     4 ar  
     6     4     5 1   
     7     4     6 ar  
     8     5    21 1   
     9     6     7 ar  
    10     6    22 1   
    11     7     8 ar  
    12     7    23 1   
    13     8     9 1   
    14     9    10 ar  
    15     9    12 ar  
    16    10    11 1   
    17    10    16 ar  
    18    12    13 ar  
    19    12    24 1   
    20    13    14 ar  
    21    13    25 1   
    22    14    15 1   
    23    14    16 ar  
    24    15    26 1   
    25    16    17 1   
    26    17    18 2   
    27    17    27 1   
    28    18    19 1   
    29    19    28 1   
@<TRIPOS>SUBSTRUCTURE
     1 15Q         1 TEMP              0 ****  ****    0 ROOT
