@<TRIPOS>MOLECULE
15R
   73    79     1     0     0
SMALL
No Charge or Current Charge


@<TRIPOS>ATOM
      1 OAA        -10.2950     0.1270    -0.0530 o          1 15R      -0.559000
      2 CBA         -9.0760     0.0790    -0.0140 c          1 15R       0.572600
      3 NAY         -8.3580     1.1520     0.4460 ns         1 15R      -0.509900
      4 CAV         -6.8900     1.2370     0.4800 c6         1 15R       0.116000
      5 CBO         -6.2090    -0.1450     0.6960 c6         1 15R       0.145000
      6 CBJ         -6.9000    -1.2360    -0.1570 ca         1 15R      -0.072300
      7 CBG         -8.2830    -1.1280    -0.4520 ca         1 15R      -0.144600
      8 CAJ         -8.9260    -2.1590    -1.1690 ca         1 15R      -0.052000
      9 CAH         -8.2030    -3.2780    -1.6090 ca         1 15R      -0.116000
     10 CAI         -6.8320    -3.3810    -1.3340 ca         1 15R      -0.087000
     11 CBF         -6.1780    -2.3720    -0.6050 ca         1 15R      -0.081300
     12 CAP         -4.6800    -2.5130    -0.3250 c6         1 15R      -0.054100
     13 CAS         -4.2150    -1.5760     0.8010 c6         1 15R       0.096000
     14 NBQ         -4.7150    -0.2020     0.5490 n          1 15R      -0.405800
     15 CBC         -3.8480     0.9150     0.3820 c          1 15R       0.616100
     16 OAC         -4.2040     2.0530     0.6560 o          1 15R      -0.597100
     17 CBN         -2.4150     0.6950    -0.1750 c6         1 15R      -0.137700
     18 CAR         -1.3300     0.6600     0.9350 c6         1 15R      -0.093900
     19 CAU          0.0750     0.4010     0.3390 c6         1 15R       0.096000
     20 CAQ         -2.0350     1.6580    -1.3320 c6         1 15R      -0.093900
     21 CAT         -0.6120     1.3490    -1.8540 c6         1 15R       0.096000
     22 NBP          0.3920     1.3650    -0.7550 n          1 15R      -0.401800
     23 CBB          1.2650     2.4630    -0.5690 c          1 15R       0.626700
     24 OAB          1.1430     3.4810    -1.2390 o          1 15R      -0.573100
     25 CBH          2.4310     2.2940     0.3710 ca         1 15R      -0.187600
     26 CAO          3.1580     1.0820     0.4070 ca         1 15R      -0.046000
     27 CBE          2.8500     3.3620     1.1890 ca         1 15R       0.208000
     28 FAE          2.1780     4.5360     1.1950 f          1 15R      -0.166000
     29 CAL          3.9520     3.2140     2.0460 ca         1 15R      -0.155000
     30 CAK          4.6580     2.0020     2.0870 ca         1 15R      -0.059000
     31 CBD          4.2650     0.9300     1.2640 ca         1 15R      -0.093300
     32 CAW          5.0380    -0.3890     1.2940 c3         1 15R      -0.046400
     33 CBI          6.1560    -0.5230     0.2760 cc         1 15R       0.361900
     34 NAX          6.3860     0.5050    -0.5490 nd         1 15R      -0.407300
     35 NAZ          7.4020     0.3840    -1.4770 ns         1 15R      -0.237900
     36 CBK          8.2500    -0.6830    -1.6900 c          1 15R       0.552600
     37 OAD          9.1170    -0.6630    -2.5540 o          1 15R      -0.541000
     38 CBM          8.0100    -1.8490    -0.7750 ca         1 15R      -0.145600
     39 CBL          6.9760    -1.7580     0.1900 ca         1 15R      -0.116900
     40 CAM          6.7550    -2.8600     1.0510 ca         1 15R      -0.108000
     41 CAF          7.5430    -4.0190     0.9510 ca         1 15R      -0.083000
     42 CAG          8.5640    -4.0970    -0.0080 ca         1 15R      -0.114000
     43 CAN          8.7980    -3.0150    -0.8700 ca         1 15R      -0.048000
     44 H1          -6.5560     1.6640    -0.4760 h1         1 15R       0.071700
     45 H2          -6.4250    -0.4100     1.7410 h1         1 15R       0.068700
     46 H3          -9.9880    -2.0900    -1.3980 ha         1 15R       0.140000
     47 H4          -8.7060    -4.0640    -2.1680 ha         1 15R       0.121000
     48 H5          -6.2780    -4.2490    -1.6830 ha         1 15R       0.113000
     49 H6          -4.4360    -3.5510    -0.0600 hc         1 15R       0.058700
     50 H7          -4.1200    -2.2840    -1.2420 hc         1 15R       0.058700
     51 H8          -4.6290    -1.9340     1.7550 h1         1 15R       0.056700
     52 H9          -3.1240    -1.6170     0.9060 h1         1 15R       0.056700
     53 H10         -2.4070    -0.3110    -0.6140 hc         1 15R       0.054700
     54 H11         -1.3230     1.6210     1.4690 hc         1 15R       0.064950
     55 H12         -1.5620    -0.1080     1.6850 hc         1 15R       0.064950
     56 H13          0.8080     0.4610     1.1540 h1         1 15R       0.057700
     57 H14          0.1200    -0.6210    -0.0640 h1         1 15R       0.057700
     58 H15         -2.7600     1.5730    -2.1530 hc         1 15R       0.064950
     59 H16         -2.0730     2.6990    -0.9820 hc         1 15R       0.064950
     60 H17         -0.6060     0.3530    -2.3200 h1         1 15R       0.057700
     61 H18         -0.3420     2.0680    -2.6400 h1         1 15R       0.057700
     62 H19          2.8730     0.2590    -0.2460 ha         1 15R       0.123000
     63 H20          4.2560     4.0430     2.6800 ha         1 15R       0.137000
     64 H21          5.5140     1.8980     2.7510 ha         1 15R       0.119000
     65 H22          5.4590    -0.5350     2.2960 hc         1 15R       0.061200
     66 H23          4.3330    -1.2160     1.1490 hc         1 15R       0.061200
     67 H24          7.5670     1.1710    -2.0970 hn         1 15R       0.357500
     68 H25          5.9730    -2.8350     1.8060 ha         1 15R       0.118000
     69 H26          7.3620    -4.8580     1.6190 ha         1 15R       0.118000
     70 H27          9.1730    -4.9950    -0.0840 ha         1 15R       0.123000
     71 H28          9.5930    -3.0840    -1.6110 ha         1 15R       0.143000
     72 H29         -8.9000     1.9560     0.7420 hn         1 15R       0.323500
     73 H30         -6.6030     1.9270     1.2860 h1         1 15R       0.071700
@<TRIPOS>BOND
     1     1     2 2   
     2     2     3 1   
     3     2     7 1   
     4     3     4 1   
     5     3    72 1   
     6     4     5 1   
     7     4    44 1   
     8     4    73 1   
     9     5     6 1   
    10     5    14 1   
    11     5    45 1   
    12     6     7 ar  
    13     6    11 ar  
    14     7     8 ar  
    15     8     9 ar  
    16     8    46 1   
    17     9    10 ar  
    18     9    47 1   
    19    10    11 ar  
    20    10    48 1   
    21    11    12 1   
    22    12    13 1   
    23    12    49 1   
    24    12    50 1   
    25    13    14 1   
    26    13    51 1   
    27    13    52 1   
    28    14    15 1   
    29    15    16 2   
    30    15    17 1   
    31    17    18 1   
    32    17    20 1   
    33    17    53 1   
    34    18    19 1   
    35    18    54 1   
    36    18    55 1   
    37    19    22 1   
    38    19    56 1   
    39    19    57 1   
    40    20    21 1   
    41    20    58 1   
    42    20    59 1   
    43    21    22 1   
    44    21    60 1   
    45    21    61 1   
    46    22    23 1   
    47    23    24 2   
    48    23    25 1   
    49    25    26 ar  
    50    25    27 ar  
    51    26    31 ar  
    52    26    62 1   
    53    27    28 1   
    54    27    29 ar  
    55    29    30 ar  
    56    29    63 1   
    57    30    31 ar  
    58    30    64 1   
    59    31    32 1   
    60    32    33 1   
    61    32    65 1   
    62    32    66 1   
    63    33    34 2   
    64    33    39 1   
    65    34    35 1   
    66    35    36 1   
    67    35    67 1   
    68    36    37 2   
    69    36    38 1   
    70    38    39 ar  
    71    38    43 ar  
    72    39    40 ar  
    73    40    41 ar  
    74    40    68 1   
    75    41    42 ar  
    76    41    69 1   
    77    42    43 ar  
    78    42    70 1   
    79    43    71 1   
@<TRIPOS>SUBSTRUCTURE
     1 15R         1 TEMP              0 ****  ****    0 ROOT
