@<TRIPOS>MOLECULE
15R
   73    79     1     0     0
SMALL
abcg2


@<TRIPOS>ATOM
      1 OAA        -10.0590     0.6680     1.2670 o          1 15R      -0.559000
      2 CBA         -8.8830     0.5710     0.9420 c          1 15R       0.572600
      3 NAY         -7.9420     1.4530     1.3160 ns         1 15R      -0.509900
      4 CAV         -6.6050     1.4870     0.7500 c6         1 15R       0.116000
      5 CBO         -6.0540     0.0660     0.8140 c6         1 15R       0.145000
      6 CBJ         -7.0110    -0.8440     0.0590 ca         1 15R      -0.072300
      7 CBG         -8.3800    -0.5640     0.1190 ca         1 15R      -0.144600
      8 CAJ         -9.2950    -1.3610    -0.5550 ca         1 15R      -0.052000
      9 CAH         -8.8490    -2.4410    -1.2990 ca         1 15R      -0.116000
     10 CAI         -7.4960    -2.7350    -1.3390 ca         1 15R      -0.087000
     11 CBF         -6.5660    -1.9540    -0.6570 ca         1 15R      -0.081300
     12 CAP         -5.1080    -2.3210    -0.6720 c6         1 15R      -0.054100
     13 CAS         -4.3730    -1.5860     0.4320 c6         1 15R       0.096000
     14 NBQ         -4.6840    -0.1650     0.3620 n          1 15R      -0.405800
     15 CBC         -3.8720     0.7540    -0.2140 c          1 15R       0.616100
     16 OAC         -4.1670     1.9360    -0.3110 o          1 15R      -0.597100
     17 CBN         -2.5140     0.2780    -0.7150 c6         1 15R      -0.137700
     18 CAR         -1.4970     0.2580     0.4350 c6         1 15R      -0.093900
     19 CAU         -0.1240    -0.1760    -0.0650 c6         1 15R       0.096000
     20 CAQ         -1.9890     1.1690    -1.8400 c6         1 15R      -0.093900
     21 CAT         -0.6120     0.6900    -2.2800 c6         1 15R       0.096000
     22 NBP          0.3130     0.6760    -1.1570 n          1 15R      -0.401800
     23 CBB          1.3080     1.5760    -1.0770 c          1 15R       0.626700
     24 OAB          1.5230     2.4340    -1.9210 o          1 15R      -0.573100
     25 CBH          2.2320     1.4630     0.0990 ca         1 15R      -0.187600
     26 CAO          3.1720     0.4420     0.1790 ca         1 15R      -0.046000
     27 CBE          2.2360     2.4330     1.0840 ca         1 15R       0.208000
     28 FAE          1.3150     3.4080     1.0270 f          1 15R      -0.166000
     29 CAL          3.1310     2.4090     2.1330 ca         1 15R      -0.155000
     30 CAK          4.0650     1.3840     2.1860 ca         1 15R      -0.059000
     31 CBD          4.0970     0.3900     1.2140 ca         1 15R      -0.093300
     32 CAW          5.1090    -0.7150     1.2730 c3         1 15R      -0.046400
     33 CBI          6.3510    -0.4530     0.4630 cc         1 15R       0.361900
     34 NAX          6.4340     0.6570    -0.1740 nd         1 15R      -0.407300
     35 NAZ          7.5290     0.9060    -0.9010 ns         1 15R      -0.237900
     36 CBK          8.6210     0.1110    -1.0770 c          1 15R       0.552600
     37 OAD          9.5590     0.4600    -1.7810 o          1 15R      -0.541000
     38 CBM          8.5440    -1.1580    -0.3550 ca         1 15R      -0.145600
     39 CBL          7.4100    -1.4410     0.4170 ca         1 15R      -0.116900
     40 CAM          7.3450    -2.6570     1.1080 ca         1 15R      -0.108000
     41 CAF          8.3870    -3.5570     1.0220 ca         1 15R      -0.083000
     42 CAG          9.5140    -3.2680     0.2480 ca         1 15R      -0.114000
     43 CAN          9.5930    -2.0740    -0.4370 ca         1 15R      -0.048000
     44 H1          -6.6340     1.8630    -0.2740 h1         1 15R       0.071700
     45 H2          -6.0860    -0.2210     1.8750 h1         1 15R       0.068700
     46 H3         -10.3510    -1.1310    -0.4990 ha         1 15R       0.140000
     47 H4          -9.5550    -3.0620    -1.8350 ha         1 15R       0.121000
     48 H5          -7.1500    -3.5950    -1.9010 ha         1 15R       0.113000
     49 H6          -4.9920    -3.3990    -0.5430 hc         1 15R       0.058700
     50 H7          -4.6650    -2.0730    -1.6420 hc         1 15R       0.058700
     51 H8          -4.6970    -1.9540     1.4100 h1         1 15R       0.056700
     52 H9          -3.3050    -1.7660     0.3860 h1         1 15R       0.056700
     53 H10         -2.5930    -0.7350    -1.1240 hc         1 15R       0.054700
     54 H11         -1.4260     1.2580     0.8740 hc         1 15R       0.064950
     55 H12         -1.8050    -0.4200     1.2340 hc         1 15R       0.064950
     56 H13          0.5940    -0.1560     0.7500 h1         1 15R       0.057700
     57 H14         -0.1700    -1.2080    -0.4270 h1         1 15R       0.057700
     58 H15         -2.6650     1.1430    -2.6970 hc         1 15R       0.064950
     59 H16         -1.9200     2.2070    -1.5090 hc         1 15R       0.064950
     60 H17         -0.6770    -0.3290    -2.6750 h1         1 15R       0.057700
     61 H18         -0.2150     1.3230    -3.0700 h1         1 15R       0.057700
     62 H19          3.1770    -0.3290    -0.5830 ha         1 15R       0.123000
     63 H20          3.0980     3.1750     2.8970 ha         1 15R       0.137000
     64 H21          4.7730     1.3610     3.0050 ha         1 15R       0.119000
     65 H22          5.4020    -0.8970     2.3110 hc         1 15R       0.061200
     66 H23          4.6590    -1.6500     0.9260 hc         1 15R       0.061200
     67 H24          7.5160     1.8000    -1.3730 hn         1 15R       0.357500
     68 H25          6.4830    -2.9010     1.7140 ha         1 15R       0.118000
     69 H26          8.3310    -4.4950     1.5590 ha         1 15R       0.118000
     70 H27         10.3240    -3.9830     0.1880 ha         1 15R       0.123000
     71 H28         10.4620    -1.8410    -1.0380 ha         1 15R       0.143000
     72 H29         -8.2530     2.2660     1.8270 hn         1 15R       0.323500
     73 H30         -6.0140     2.1700     1.3510 h1         1 15R       0.071700
@<TRIPOS>BOND
     1     1     2 2   
     2     2     3 1   
     3     2     7 1   
     4     3     4 1   
     5     3    72 1   
     6     4     5 1   
     7     4    44 1   
     8     4    73 1   
     9     5     6 1   
    10     5    14 1   
    11     5    45 1   
    12     6     7 ar  
    13     6    11 ar  
    14     7     8 ar  
    15     8     9 ar  
    16     8    46 1   
    17     9    10 ar  
    18     9    47 1   
    19    10    11 ar  
    20    10    48 1   
    21    11    12 1   
    22    12    13 1   
    23    12    49 1   
    24    12    50 1   
    25    13    14 1   
    26    13    51 1   
    27    13    52 1   
    28    14    15 1   
    29    15    16 2   
    30    15    17 1   
    31    17    18 1   
    32    17    20 1   
    33    17    53 1   
    34    18    19 1   
    35    18    54 1   
    36    18    55 1   
    37    19    22 1   
    38    19    56 1   
    39    19    57 1   
    40    20    21 1   
    41    20    58 1   
    42    20    59 1   
    43    21    22 1   
    44    21    60 1   
    45    21    61 1   
    46    22    23 1   
    47    23    24 2   
    48    23    25 1   
    49    25    26 ar  
    50    25    27 ar  
    51    26    31 ar  
    52    26    62 1   
    53    27    28 1   
    54    27    29 ar  
    55    29    30 ar  
    56    29    63 1   
    57    30    31 ar  
    58    30    64 1   
    59    31    32 1   
    60    32    33 1   
    61    32    65 1   
    62    32    66 1   
    63    33    34 2   
    64    33    39 1   
    65    34    35 1   
    66    35    36 1   
    67    35    67 1   
    68    36    37 2   
    69    36    38 1   
    70    38    39 ar  
    71    38    43 ar  
    72    39    40 ar  
    73    40    41 ar  
    74    40    68 1   
    75    41    42 ar  
    76    41    69 1   
    77    42    43 ar  
    78    42    70 1   
    79    43    71 1   
@<TRIPOS>SUBSTRUCTURE
     1 15R         1 TEMP              0 ****  ****    0 ROOT
