@<TRIPOS>MOLECULE
15S
   64    68     1     0     0
SMALL
abcg2


@<TRIPOS>ATOM
      1 OAC         -8.9160    -1.0450    -0.8940 o          1 15S      -0.562000
      2 CAX         -7.7850    -0.7620    -0.5240 c          1 15S       0.576600
      3 NAU         -6.8600    -1.6920    -0.2310 ns         1 15S      -0.512900
      4 CAS         -5.5620    -1.3880     0.3310 c6         1 15S       0.114000
      5 CBG         -4.9740    -0.1880    -0.4030 c6         1 15S       0.209800
      6 CBE         -5.9650     0.9440    -0.2460 ca         1 15S      -0.048300
      7 CBD         -7.3290     0.6440    -0.3490 ca         1 15S      -0.149600
      8 CAI         -8.2800     1.6510    -0.2640 ca         1 15S      -0.056000
      9 CAG         -7.8790     2.9610    -0.0540 ca         1 15S      -0.118000
     10 CAH         -6.5310     3.2540     0.0750 ca         1 15S      -0.089000
     11 CBC         -5.5640     2.2560    -0.0190 ca         1 15S      -0.070300
     12 CAP         -4.1070     2.5690     0.1490 c6         1 15S      -0.029100
     13 CAR         -3.2440     1.4680    -0.4280 c6         1 15S       0.168800
     14 NBI         -3.6570     0.1720     0.0910 n3         1 15S      -0.689600
     15 CAT         -2.6700    -0.8330    -0.2070 c3         1 15S       0.083800
     16 CAW         -1.4190    -0.7030     0.6520 c          1 15S       0.601100
     17 OAB         -1.3900    -0.0960     1.7080 o          1 15S      -0.582100
     18 N           -0.3640    -1.3650     0.1490 ns         1 15S      -0.513900
     19 CA           0.8880    -1.5170     0.8450 c3         1 15S       0.042700
     20 CB           0.7980    -2.5660     1.9570 c3         1 15S      -0.112100
     21 C            1.9310    -1.9440    -0.1910 c          1 15S       0.601100
     22 O            1.5580    -2.3970    -1.2650 o          1 15S      -0.618100
     23 NBH          3.2310    -1.8550     0.1440 n          1 15S      -0.400800
     24 CAQ          3.7540    -1.3090     1.3790 c6         1 15S       0.138200
     25 CAO          5.0020    -0.5130     1.1580 c2         1 15S      -0.240200
     26 CAN          4.2600    -2.3510    -0.7540 c6         1 15S       0.092000
     27 CAF          5.1730    -1.2200    -1.1900 c6         1 15S      -0.060200
     28 CAY          5.6610    -0.4390     0.0010 ce         1 15S      -0.039400
     29 CBB          6.8740     0.3870    -0.1540 ca         1 15S      -0.068800
     30 CAL          7.7660     0.5800     0.9030 ca         1 15S      -0.073500
     31 CAJ          8.8940     1.3700     0.7600 ca         1 15S      -0.152000
     32 CBA          9.1360     1.9690    -0.4610 ca         1 15S       0.177000
     33 FAE         10.2300     2.7310    -0.6080 f          1 15S      -0.176000
     34 CAK          8.2880     1.7940    -1.5360 ca         1 15S      -0.152000
     35 CAM          7.1660     0.9980    -1.3740 ca         1 15S      -0.073500
     36 H3          -7.1450    -2.6570    -0.2800 hn         1 15S       0.321500
     37 H5          -5.6240    -1.1700     1.4030 h1         1 15S       0.054200
     38 H6          -4.9510    -2.2800     0.2120 h1         1 15S       0.054200
     39 H7          -4.9340    -0.4470    -1.4790 h1         1 15S       0.043700
     40 H8          -9.3310     1.4090    -0.3510 ha         1 15S       0.137000
     41 H9          -8.6150     3.7500     0.0150 ha         1 15S       0.118000
     42 H10         -6.2190     4.2770     0.2510 ha         1 15S       0.114000
     43 H11         -3.8610     3.5180    -0.3310 hc         1 15S       0.062700
     44 H12         -3.8810     2.6870     1.2120 hc         1 15S       0.062700
     45 H13         -3.2930     1.4900    -1.5300 h1         1 15S       0.041200
     46 H14         -2.2050     1.6490    -0.1550 h1         1 15S       0.041200
     47 H16         -3.0640    -1.8280     0.0070 h1         1 15S       0.049700
     48 H17         -2.3880    -0.8480    -1.2740 h1         1 15S       0.049700
     49 H18         -0.4440    -1.8530    -0.7310 hn         1 15S       0.339500
     50 H19          1.1520    -0.5490     1.2770 h1         1 15S       0.082700
     51 H20          1.7340    -2.6630     2.5050 hc         1 15S       0.050700
     52 H21          0.0280    -2.2870     2.6730 hc         1 15S       0.050700
     53 H22          0.5470    -3.5420     1.5430 hc         1 15S       0.050700
     54 H23          3.0230    -0.6590     1.8580 h1         1 15S       0.056700
     55 H24          3.9610    -2.1120     2.0990 h1         1 15S       0.056700
     56 H25          5.3390     0.0390     2.0260 ha         1 15S       0.185000
     57 H27          4.8440    -3.1110    -0.2270 h1         1 15S       0.065200
     58 H28          3.7950    -2.8290    -1.6100 h1         1 15S       0.065200
     59 H29          6.0200    -1.6420    -1.7340 hc         1 15S       0.062700
     60 H30          4.6470    -0.5680    -1.8950 hc         1 15S       0.062700
     61 H32          7.5940     0.0890     1.8520 ha         1 15S       0.117500
     62 H33          9.5800     1.5080     1.5850 ha         1 15S       0.133500
     63 H34          8.4950     2.2740    -2.4830 ha         1 15S       0.133500
     64 H35          6.5010     0.8700    -2.2190 ha         1 15S       0.117500
@<TRIPOS>BOND
     1     1     2 2   
     2     2     3 1   
     3     2     7 1   
     4     3     4 1   
     5     3    36 1   
     6     4     5 1   
     7     4    37 1   
     8     4    38 1   
     9     5     6 1   
    10     5    14 1   
    11     5    39 1   
    12     6     7 ar  
    13     6    11 ar  
    14     7     8 ar  
    15     8     9 ar  
    16     8    40 1   
    17     9    10 ar  
    18     9    41 1   
    19    10    11 ar  
    20    10    42 1   
    21    11    12 1   
    22    12    13 1   
    23    12    43 1   
    24    12    44 1   
    25    13    14 1   
    26    13    45 1   
    27    13    46 1   
    28    14    15 1   
    29    15    16 1   
    30    15    47 1   
    31    15    48 1   
    32    16    17 2   
    33    16    18 1   
    34    18    19 1   
    35    18    49 1   
    36    19    20 1   
    37    19    21 1   
    38    19    50 1   
    39    20    51 1   
    40    20    52 1   
    41    20    53 1   
    42    21    22 2   
    43    21    23 1   
    44    23    24 1   
    45    23    26 1   
    46    24    25 1   
    47    24    54 1   
    48    24    55 1   
    49    25    28 2   
    50    25    56 1   
    51    26    27 1   
    52    26    57 1   
    53    26    58 1   
    54    27    28 1   
    55    27    59 1   
    56    27    60 1   
    57    28    29 1   
    58    29    30 ar  
    59    29    35 ar  
    60    30    31 ar  
    61    30    61 1   
    62    31    32 ar  
    63    31    62 1   
    64    32    33 1   
    65    32    34 ar  
    66    34    35 ar  
    67    34    63 1   
    68    35    64 1   
@<TRIPOS>SUBSTRUCTURE
     1 15S         1 TEMP              0 ****  ****    0 ROOT
