@<TRIPOS>MOLECULE
15S
   64    68     1     0     0
SMALL
No Charge or Current Charge


@<TRIPOS>ATOM
      1 OAC         -9.0610     0.1380    -0.6350 o          1 15S      -0.562000
      2 CAX         -7.8860     0.1060    -0.3040 c          1 15S       0.576600
      3 NAU         -7.4100    -0.9340     0.4520 ns         1 15S      -0.512900
      4 CAS         -6.0280    -1.0620     0.9410 c6         1 15S       0.114000
      5 CBG         -4.9850    -0.3980    -0.0050 c6         1 15S       0.209800
      6 CBE         -5.5030     0.9720    -0.4940 ca         1 15S      -0.048300
      7 CBD         -6.8930     1.1760    -0.6830 ca         1 15S      -0.149600
      8 CAI         -7.3510     2.3990    -1.2180 ca         1 15S      -0.056000
      9 CAG         -6.4420     3.4190    -1.5380 ca         1 15S      -0.118000
     10 CAH         -5.0690     3.2290    -1.3240 ca         1 15S      -0.089000
     11 CBC         -4.5960     2.0080    -0.8090 ca         1 15S      -0.070300
     12 CAP         -3.1010     1.8320    -0.5540 c6         1 15S      -0.029100
     13 CAR         -2.6810     0.3620    -0.3490 c6         1 15S       0.168800
     14 NBI         -3.6020    -0.3530     0.5770 n3         1 15S      -0.689600
     15 CAT         -3.0710    -1.7040     0.9780 c3         1 15S       0.083800
     16 CAW         -1.6560    -1.7680     1.6280 c          1 15S       0.601100
     17 OAB         -1.4570    -1.5430     2.8160 o          1 15S      -0.582100
     18 N           -0.6280    -2.0910     0.7650 ns         1 15S      -0.513900
     19 CA           0.8010    -2.1970     1.1350 c3         1 15S       0.042700
     20 CB           1.0670    -3.5320     1.8750 c3         1 15S      -0.112100
     21 C            1.7070    -2.0220    -0.1330 c          1 15S       0.601100
     22 O            1.2040    -1.9950    -1.2530 o          1 15S      -0.618100
     23 NBH          3.1170    -1.9540     0.0110 n          1 15S      -0.400800
     24 CAQ          3.8080    -1.6410     1.2920 c6         1 15S       0.138200
     25 CAO          4.8890    -0.5740     1.1510 c2         1 15S      -0.240200
     26 CAN          4.0250    -1.9330    -1.1630 c6         1 15S       0.092000
     27 CAF          4.6450    -0.5330    -1.3370 c6         1 15S      -0.060200
     28 CAY          5.2920    -0.0540    -0.0330 ce         1 15S      -0.039400
     29 CBB          6.3680     0.9780    -0.1270 ca         1 15S      -0.068800
     30 CAL          7.5070     0.8970     0.7040 ca         1 15S      -0.073500
     31 CAJ          8.5220     1.8660     0.6150 ca         1 15S      -0.152000
     32 CBA          8.4060     2.9190    -0.3030 ca         1 15S       0.177000
     33 FAE          9.3810     3.8500    -0.3880 f          1 15S      -0.176000
     34 CAK          7.2800     3.0100    -1.1350 ca         1 15S      -0.152000
     35 CAM          6.2640     2.0420    -1.0480 ca         1 15S      -0.073500
     36 H3          -8.0840    -1.6480     0.7030 hn         1 15S       0.321500
     37 H5          -5.9720    -0.5870     1.9310 h1         1 15S       0.054200
     38 H6          -5.8060    -2.1300     1.0630 h1         1 15S       0.054200
     39 H7          -4.9510    -1.0300    -0.9060 h1         1 15S       0.043700
     40 H8          -8.4150     2.5660    -1.3740 ha         1 15S       0.137000
     41 H9          -6.8040     4.3630    -1.9410 ha         1 15S       0.118000
     42 H10         -4.3720     4.0300    -1.5590 ha         1 15S       0.114000
     43 H11         -2.5200     2.2620    -1.3810 hc         1 15S       0.062700
     44 H12         -2.8290     2.4050     0.3430 hc         1 15S       0.062700
     45 H13         -2.6620    -0.1440    -1.3260 h1         1 15S       0.041200
     46 H14         -1.6510     0.3600     0.0340 h1         1 15S       0.041200
     47 H16         -3.7390    -2.1700     1.7130 h1         1 15S       0.049700
     48 H17         -3.0560    -2.3700     0.1050 h1         1 15S       0.049700
     49 H18         -0.8750    -2.2300    -0.2100 hn         1 15S       0.339500
     50 H19          1.0280    -1.3640     1.8110 h1         1 15S       0.082700
     51 H20          2.1090    -3.6130     2.2000 hc         1 15S       0.050700
     52 H21          0.4340    -3.6150     2.7660 hc         1 15S       0.050700
     53 H22          0.8480    -4.3840     1.2200 hc         1 15S       0.050700
     54 H23          3.0940    -1.2980     2.0510 h1         1 15S       0.056700
     55 H24          4.2650    -2.5640     1.6760 h1         1 15S       0.056700
     56 H25          5.3330    -0.2370     2.0880 ha         1 15S       0.185000
     57 H27          4.8280    -2.6680    -1.0030 h1         1 15S       0.065200
     58 H28          3.5000    -2.2260    -2.0830 h1         1 15S       0.065200
     59 H29          5.3880    -0.5570    -2.1460 hc         1 15S       0.062700
     60 H30          3.8640     0.1760    -1.6410 hc         1 15S       0.062700
     61 H32          7.6120     0.0780     1.4110 ha         1 15S       0.117500
     62 H33          9.3990     1.8000     1.2540 ha         1 15S       0.133500
     63 H34          7.1960     3.8300    -1.8440 ha         1 15S       0.133500
     64 H35          5.3920     2.1280    -1.6930 ha         1 15S       0.117500
@<TRIPOS>BOND
     1     1     2 2   
     2     2     3 1   
     3     2     7 1   
     4     3     4 1   
     5     3    36 1   
     6     4     5 1   
     7     4    37 1   
     8     4    38 1   
     9     5     6 1   
    10     5    14 1   
    11     5    39 1   
    12     6     7 ar  
    13     6    11 ar  
    14     7     8 ar  
    15     8     9 ar  
    16     8    40 1   
    17     9    10 ar  
    18     9    41 1   
    19    10    11 ar  
    20    10    42 1   
    21    11    12 1   
    22    12    13 1   
    23    12    43 1   
    24    12    44 1   
    25    13    14 1   
    26    13    45 1   
    27    13    46 1   
    28    14    15 1   
    29    15    16 1   
    30    15    47 1   
    31    15    48 1   
    32    16    17 2   
    33    16    18 1   
    34    18    19 1   
    35    18    49 1   
    36    19    20 1   
    37    19    21 1   
    38    19    50 1   
    39    20    51 1   
    40    20    52 1   
    41    20    53 1   
    42    21    22 2   
    43    21    23 1   
    44    23    24 1   
    45    23    26 1   
    46    24    25 1   
    47    24    54 1   
    48    24    55 1   
    49    25    28 2   
    50    25    56 1   
    51    26    27 1   
    52    26    57 1   
    53    26    58 1   
    54    27    28 1   
    55    27    59 1   
    56    27    60 1   
    57    28    29 1   
    58    29    30 ar  
    59    29    35 ar  
    60    30    31 ar  
    61    30    61 1   
    62    31    32 ar  
    63    31    62 1   
    64    32    33 1   
    65    32    34 ar  
    66    34    35 ar  
    67    34    63 1   
    68    35    64 1   
@<TRIPOS>SUBSTRUCTURE
     1 15S         1 TEMP              0 ****  ****    0 ROOT
