@<TRIPOS>MOLECULE
15T
   48    51     1     0     0
SMALL
No Charge or Current Charge


@<TRIPOS>ATOM
      1 C1           1.8470    -3.7440    -1.2410 c3         1 15T      -0.136100
      2 C2           2.2010    -3.1510     0.1390 c3         1 15T       0.171000
      3 O4           3.3430    -3.8650     0.6540 oh         1 15T      -0.622000
      4 C5           2.4150    -1.6330     0.0780 cc         1 15T       0.390800
      5 N6           1.3850    -0.6740     0.1260 na         1 15T      -0.167600
      6 C7           1.9850     0.5700     0.0380 ca         1 15T      -0.004200
      7 C8           3.3300     0.3260    -0.0800 ca         1 15T      -0.027600
      8 N9           3.6190    -1.0380    -0.0630 nd         1 15T      -0.511100
      9 C10          4.2390     1.4060    -0.1930 ca         1 15T       0.428900
     10 N11          3.8290     2.7040    -0.1830 nb         1 15T      -0.695000
     11 C12          2.5030     2.9290    -0.0570 ca         1 15T       0.358500
     12 C13          1.5570     1.9190     0.0560 ca         1 15T      -0.127800
     13 C14          0.2700     2.5580     0.1780 cc         1 15T      -0.236200
     14 C15          0.4830     3.9240     0.1320 cd         1 15T      -0.172100
     15 N16          1.8690     4.1560    -0.0150 na         1 15T      -0.305400
     16 C18         -0.0750    -0.9560     0.1840 c6         1 15T       0.093300
     17 C20         -0.7090    -0.5090     1.5280 c6         1 15T      -0.092900
     18 C21         -2.2300    -0.7970     1.5600 c6         1 15T      -0.072400
     19 C22         -2.9680    -0.1970     0.3300 c6         1 15T      -0.063700
     20 C24         -2.3490    -0.7540    -0.9860 c6         1 15T      -0.072400
     21 C25         -0.8310    -0.4650    -1.0810 c6         1 15T      -0.092900
     22 C26         -4.5030    -0.4660     0.4310 c3         1 15T      -0.069400
     23 C27         -5.3720     0.2200    -0.6540 c3         1 15T      -0.017300
     24 C28         -6.8120     0.0330    -0.4340 c1         1 15T       0.295900
     25 N29         -7.9490    -0.1330    -0.2400 n1         1 15T      -0.460000
     26 H1           1.6440    -4.8190    -1.1650 hc         1 15T       0.048700
     27 H2           0.9530    -3.2590    -1.6510 hc         1 15T       0.048700
     28 H3           2.6710    -3.5950    -1.9490 hc         1 15T       0.048700
     29 H4           1.3520    -3.3390     0.8090 h1         1 15T       0.031700
     30 H5           3.1010    -4.8160     0.6860 ho         1 15T       0.443000
     31 H6           5.3100     1.2290    -0.2890 h4         1 15T       0.036100
     32 H8          -0.7100     2.1080     0.2830 ha         1 15T       0.200000
     33 H9          -0.2390     4.7380     0.1900 h4         1 15T       0.214000
     34 H10         -0.1970    -2.0460     0.1670 h1         1 15T       0.058700
     35 H11         -0.2250    -1.0520     2.3500 hc         1 15T       0.060200
     36 H12         -0.5230     0.5480     1.7360 hc         1 15T       0.060200
     37 H13         -2.3930    -1.8840     1.5950 hc         1 15T       0.044450
     38 H14         -2.6540    -0.3920     2.4890 hc         1 15T       0.044450
     39 H15         -2.8430     0.8950     0.3470 hc         1 15T       0.050700
     40 H16         -2.5200    -1.8380    -1.0460 hc         1 15T       0.044450
     41 H17         -2.8430    -0.3130    -1.8620 hc         1 15T       0.044450
     42 H18         -0.6680     0.6000    -1.2700 hc         1 15T       0.060200
     43 H19         -0.4230    -0.9760    -1.9640 hc         1 15T       0.060200
     44 H20         -4.6900    -1.5470     0.4030 hc         1 15T       0.052700
     45 H21         -4.8560    -0.1240     1.4130 hc         1 15T       0.052700
     46 H22         -5.1610     1.2950    -0.6740 hc         1 15T       0.070700
     47 H23         -5.1280    -0.1780    -1.6450 hc         1 15T       0.070700
     48 H7           2.3350     5.0530    -0.0800 hn         1 15T       0.361000
@<TRIPOS>BOND
     1     1     2 1   
     2     1    26 1   
     3     1    27 1   
     4     1    28 1   
     5     2     3 1   
     6     2     4 1   
     7     2    29 1   
     8     3    30 1   
     9     4     5 1   
    10     4     8 2   
    11     5     6 1   
    12     5    16 1   
    13     6     7 ar  
    14     6    12 ar  
    15     7     8 1   
    16     7     9 ar  
    17     9    10 ar  
    18     9    31 1   
    19    10    11 ar  
    20    11    12 ar  
    21    11    15 1   
    22    12    13 1   
    23    13    14 2   
    24    13    32 1   
    25    14    15 1   
    26    14    33 1   
    27    15    48 1   
    28    16    17 1   
    29    16    21 1   
    30    16    34 1   
    31    17    18 1   
    32    17    35 1   
    33    17    36 1   
    34    18    19 1   
    35    18    37 1   
    36    18    38 1   
    37    19    20 1   
    38    19    22 1   
    39    19    39 1   
    40    20    21 1   
    41    20    40 1   
    42    20    41 1   
    43    21    42 1   
    44    21    43 1   
    45    22    23 1   
    46    22    44 1   
    47    22    45 1   
    48    23    24 1   
    49    23    46 1   
    50    23    47 1   
    51    24    25 3   
@<TRIPOS>SUBSTRUCTURE
     1 15T         1 TEMP              0 ****  ****    0 ROOT
