@<TRIPOS>MOLECULE
15T
   48    51     1     0     0
SMALL
abcg2


@<TRIPOS>ATOM
      1 C1           1.6200    -3.5440    -1.2780 c3         1 15T      -0.136100
      2 C2           2.0650    -3.0770     0.1070 c3         1 15T       0.171000
      3 O4           3.2570    -3.6970     0.5100 oh         1 15T      -0.622000
      4 C5           2.3270    -1.5970     0.1060 cc         1 15T       0.390800
      5 N6           1.3190    -0.6610     0.1320 na         1 15T      -0.167600
      6 C7           1.9290     0.5660     0.0730 ca         1 15T      -0.004200
      7 C8           3.3000     0.2840     0.0140 ca         1 15T      -0.027600
      8 N9           3.5110    -1.0710     0.0360 nd         1 15T      -0.511100
      9 C10          4.2460     1.3140    -0.0610 ca         1 15T       0.428900
     10 N11          3.8940     2.5820    -0.0800 nb         1 15T      -0.695000
     11 C12          2.5850     2.8300    -0.0200 ca         1 15T       0.358500
     12 C13          1.5120     1.9080     0.0610 ca         1 15T      -0.127800
     13 C14          0.3140     2.6840     0.1030 cc         1 15T      -0.236200
     14 C15          0.6920     3.9970     0.0450 cd         1 15T      -0.172100
     15 N16          2.0470     4.0830    -0.0280 na         1 15T      -0.305400
     16 C18         -0.1100    -0.9470     0.2090 c6         1 15T       0.093300
     17 C20         -0.7260    -0.4230     1.5020 c6         1 15T      -0.092900
     18 C21         -2.2120    -0.7590     1.5580 c6         1 15T      -0.072400
     19 C22         -2.9670    -0.2460     0.3320 c6         1 15T      -0.063700
     20 C24         -2.3370    -0.8070    -0.9420 c6         1 15T      -0.072400
     21 C25         -0.8510    -0.4740    -1.0360 c6         1 15T      -0.092900
     22 C26         -4.4500    -0.5860     0.4570 c3         1 15T      -0.069400
     23 C27         -5.2990     0.0260    -0.6620 c3         1 15T      -0.017300
     24 C28         -6.7170    -0.2230    -0.4600 c1         1 15T       0.295900
     25 N29         -7.8360    -0.4290    -0.2830 n1         1 15T      -0.460000
     26 H1           1.3930    -4.6120    -1.2640 hc         1 15T       0.048700
     27 H2           0.7190    -3.0270    -1.6090 hc         1 15T       0.048700
     28 H3           2.4040    -3.3610    -2.0130 hc         1 15T       0.048700
     29 H4           1.2630    -3.2930     0.8260 h1         1 15T       0.031700
     30 H5           3.1120    -4.6480     0.4920 ho         1 15T       0.443000
     31 H6           5.3050     1.0820    -0.1070 h4         1 15T       0.036100
     32 H8          -0.7060     2.3450     0.1670 ha         1 15T       0.200000
     33 H9           0.0810     4.8840     0.0520 h4         1 15T       0.214000
     34 H10         -0.2030    -2.0350     0.2380 h1         1 15T       0.058700
     35 H11         -0.2050    -0.8650     2.3540 hc         1 15T       0.060200
     36 H12         -0.5940     0.6580     1.5830 hc         1 15T       0.060200
     37 H13         -2.3390    -1.8450     1.6320 hc         1 15T       0.044450
     38 H14         -2.6440    -0.3350     2.4670 hc         1 15T       0.044450
     39 H15         -2.8690     0.8480     0.3080 hc         1 15T       0.050700
     40 H16         -2.4740    -1.8950    -0.9640 hc         1 15T       0.044450
     41 H17         -2.8350    -0.4140    -1.8300 hc         1 15T       0.044450
     42 H18         -0.7290     0.6030    -1.1700 hc         1 15T       0.060200
     43 H19         -0.4150    -0.9460    -1.9200 hc         1 15T       0.060200
     44 H20         -4.5820    -1.6710     0.4610 hc         1 15T       0.052700
     45 H21         -4.8200    -0.2190     1.4180 hc         1 15T       0.052700
     46 H22         -5.1510     1.1070    -0.7110 hc         1 15T       0.070700
     47 H23         -5.0290    -0.3780    -1.6390 hc         1 15T       0.070700
     48 H7           2.5770     4.9370    -0.0900 hn         1 15T       0.361000
@<TRIPOS>BOND
     1     1     2 1   
     2     1    26 1   
     3     1    27 1   
     4     1    28 1   
     5     2     3 1   
     6     2     4 1   
     7     2    29 1   
     8     3    30 1   
     9     4     5 1   
    10     4     8 2   
    11     5     6 1   
    12     5    16 1   
    13     6     7 ar  
    14     6    12 ar  
    15     7     8 1   
    16     7     9 ar  
    17     9    10 ar  
    18     9    31 1   
    19    10    11 ar  
    20    11    12 ar  
    21    11    15 1   
    22    12    13 1   
    23    13    14 2   
    24    13    32 1   
    25    14    15 1   
    26    14    33 1   
    27    15    48 1   
    28    16    17 1   
    29    16    21 1   
    30    16    34 1   
    31    17    18 1   
    32    17    35 1   
    33    17    36 1   
    34    18    19 1   
    35    18    37 1   
    36    18    38 1   
    37    19    20 1   
    38    19    22 1   
    39    19    39 1   
    40    20    21 1   
    41    20    40 1   
    42    20    41 1   
    43    21    42 1   
    44    21    43 1   
    45    22    23 1   
    46    22    44 1   
    47    22    45 1   
    48    23    24 1   
    49    23    46 1   
    50    23    47 1   
    51    24    25 3   
@<TRIPOS>SUBSTRUCTURE
     1 15T         1 TEMP              0 ****  ****    0 ROOT
