@<TRIPOS>MOLECULE
15U
   70    72     1     0     0
SMALL
bcc


@<TRIPOS>ATOM
      1 S            0.9570    -1.6640    -1.7320 sy         1 15U       1.293200
      2 O1           1.9860    -2.1200    -0.8020 o          1 15U      -0.636800
      3 O2           1.0330    -2.0940    -3.1200 o          1 15U      -0.636800
      4 C1          -0.0920    -3.0910     2.5210 c6         1 15U       0.239800
      5 C2          -1.3120    -3.9870     2.6540 c6         1 15U      -0.082700
      6 C3          -2.4970    -3.2840     2.0060 c6         1 15U      -0.019100
      7 C4          -2.1940    -2.8080     0.6110 ca         1 15U      -0.193300
      8 C5          -3.2150    -2.6120    -0.2940 ca         1 15U      -0.025000
      9 C6          -2.9860    -2.1470    -1.5880 ca         1 15U      -0.192000
     10 C7          -1.6920    -1.8900    -1.9730 ca         1 15U       0.016000
     11 C8          -0.6310    -2.0850    -1.0850 ca         1 15U      -0.407500
     12 C9          -0.8500    -2.5390     0.2380 ca         1 15U       0.311600
     13 C10         -1.5870    -4.3230     4.1110 c3         1 15U      -0.085100
     14 N            0.1360    -2.7130     1.1460 nu         1 15U      -0.792600
     15 N1           1.0620    -0.0200    -1.7830 n7         1 15U      -0.791100
     16 CA           0.8090     0.7450    -0.5710 c3         1 15U       0.123500
     17 C           -0.5670     1.4230    -0.6900 c          1 15U       0.642100
     18 O           -1.1090     1.4580    -1.7840 o          1 15U      -0.568100
     19 CB           1.9150     1.7900    -0.3870 c3         1 15U      -0.062400
     20 CG           3.2790     1.1550    -0.1640 c3         1 15U      -0.091400
     21 CD           4.3850     2.1960    -0.1180 c3         1 15U       0.213800
     22 NE           5.6710     1.5390     0.0450 nu         1 15U      -0.887200
     23 CZ           6.8640     2.2180     0.0870 c2         1 15U       0.794100
     24 NH1          6.7730     3.5310     0.4850 nv         1 15U      -0.908800
     25 NH2          8.0100     1.7260    -0.2170 n2         1 15U      -0.919100
     26 N2          -1.0730     2.0200     0.4060 n          1 15U      -0.401800
     27 C11         -2.4170     2.5930     0.3400 c6         1 15U      -0.047300
     28 C21         -3.4230     1.4830     0.6160 c6         1 15U      -0.081400
     29 C31         -3.1790     0.8390     1.9920 c6         1 15U      -0.063700
     30 C41         -1.7020     0.4610     2.1670 c6         1 15U      -0.104400
     31 C51         -0.7500     1.5820     1.7590 c6         1 15U       0.085000
     32 C61         -2.6600     3.4730    -0.9090 c          1 15U       0.952600
     33 O11         -3.7690     3.3660    -1.4630 o          1 15U      -0.819300
     34 O21         -1.7560     4.2820    -1.1850 o          1 15U      -0.819300
     35 C71         -3.6690     1.7280     3.1340 c3         1 15U      -0.082100
     36 H3          -1.1110    -4.9150     2.1060 hc         1 15U       0.058700
     37 H4          -3.3630    -3.9500     1.9820 hc         1 15U       0.046700
     38 H5          -2.7880    -2.4280     2.6290 hc         1 15U       0.046700
     39 H6          -4.2290    -2.8290     0.0220 ha         1 15U       0.121000
     40 H7          -3.8050    -2.0000    -2.2770 ha         1 15U       0.142000
     41 H8          -1.4970    -1.5390    -2.9780 ha         1 15U       0.150000
     42 H9          -2.4510    -4.9820     4.2040 hc         1 15U       0.033367
     43 H10         -0.7360    -4.8260     4.5720 hc         1 15U       0.033367
     44 H11         -1.7940    -3.4190     4.6880 hc         1 15U       0.033367
     45 H12          1.0860    -2.5640     0.8500 hn         1 15U       0.475800
     46 H13          0.5530     0.3620    -2.5770 hn         1 15U       0.457800
     47 H14          0.8240     0.0640     0.2860 h1         1 15U       0.055700
     48 H15          1.9320     2.4300    -1.2740 hc         1 15U       0.065200
     49 H16          1.6680     2.4400     0.4560 hc         1 15U       0.065200
     50 H17          3.2750     0.5870     0.7710 hc         1 15U       0.051700
     51 H18          3.4830     0.4420    -0.9660 hc         1 15U       0.051700
     52 H19          4.3530     2.8070    -1.0290 h1         1 15U       0.040200
     53 H20          4.2030     2.8700     0.7220 h1         1 15U       0.040200
     54 H21          5.7330     0.6500    -0.4280 hn         1 15U       0.412800
     55 H22          6.0670     3.7580     1.1670 hn         1 15U       0.403300
     56 H23          7.6660     3.9400     0.7120 hn         1 15U       0.403300
     57 H24          7.9120     0.7900    -0.5930 hn         1 15U       0.376400
     58 H26         -2.4590     3.3090     1.1710 h1         1 15U       0.037700
     59 H27         -4.4390     1.8790     0.5750 hc         1 15U       0.059700
     60 H28         -3.3450     0.7270    -0.1710 hc         1 15U       0.059700
     61 H29         -3.7630    -0.0870     2.0320 hc         1 15U       0.027700
     62 H30         -1.5010     0.1680     3.2020 hc         1 15U       0.031700
     63 H31         -1.4800    -0.4090     1.5460 hc         1 15U       0.031700
     64 H32          0.2860     1.2560     1.8390 h1         1 15U       0.041200
     65 H33         -0.8410     2.4470     2.4190 h1         1 15U       0.041200
     66 H35         -4.7220     1.9850     3.0050 hc         1 15U       0.025033
     67 H36         -3.5690     1.2170     4.0930 hc         1 15U       0.025033
     68 H37         -3.1120     2.6630     3.2060 hc         1 15U       0.025033
     69 H1          -0.2180    -2.2050     3.1570 h1         1 15U       0.039700
     70 H2           0.8010    -3.6070     2.8740 h1         1 15U       0.039700
@<TRIPOS>BOND
     1     1     2 2   
     2     1     3 2   
     3     1    11 1   
     4     1    15 1   
     5     4     5 1   
     6     4    14 1   
     7     4    69 1   
     8     4    70 1   
     9     5     6 1   
    10     5    13 1   
    11     5    36 1   
    12     6     7 1   
    13     6    37 1   
    14     6    38 1   
    15     7     8 ar  
    16     7    12 ar  
    17     8     9 ar  
    18     8    39 1   
    19     9    10 ar  
    20     9    40 1   
    21    10    11 ar  
    22    10    41 1   
    23    11    12 ar  
    24    12    14 1   
    25    13    42 1   
    26    13    43 1   
    27    13    44 1   
    28    14    45 1   
    29    15    16 1   
    30    15    46 1   
    31    16    17 1   
    32    16    19 1   
    33    16    47 1   
    34    17    18 2   
    35    17    26 1   
    36    19    20 1   
    37    19    48 1   
    38    19    49 1   
    39    20    21 1   
    40    20    50 1   
    41    20    51 1   
    42    21    22 1   
    43    21    52 1   
    44    21    53 1   
    45    22    23 1   
    46    22    54 1   
    47    23    24 1   
    48    23    25 2   
    49    24    55 1   
    50    24    56 1   
    51    25    57 1   
    52    26    27 1   
    53    26    31 1   
    54    27    28 1   
    55    27    32 1   
    56    27    58 1   
    57    28    29 1   
    58    28    59 1   
    59    28    60 1   
    60    29    30 1   
    61    29    35 1   
    62    29    61 1   
    63    30    31 1   
    64    30    62 1   
    65    30    63 1   
    66    31    64 1   
    67    31    65 1   
    68    32    33 1   
    69    32    34 1   
    70    35    66 1   
    71    35    67 1   
    72    35    68 1   
@<TRIPOS>SUBSTRUCTURE
     1 15U         1 TEMP              0 ****  ****    0 ROOT
