@<TRIPOS>MOLECULE
15U
   70    72     1     0     0
SMALL
No Charge or Current Charge


@<TRIPOS>ATOM
      1 S            0.1350    -1.5810    -2.5900 sy         1 15U       1.151600
      2 O1           1.1700    -2.6090    -2.7240 o          1 15U      -0.566000
      3 O2          -0.6650    -1.1220    -3.7240 o          1 15U      -0.566000
      4 C1           1.5400    -3.1730     1.3710 c6         1 15U       0.239800
      5 C2           0.6100    -4.0760     2.2140 c6         1 15U      -0.082700
      6 C3          -0.7850    -3.4100     2.3650 c6         1 15U      -0.019100
      7 C4          -1.3130    -2.8190     1.0480 ca         1 15U      -0.193300
      8 C5          -2.6720    -2.4750     0.9500 ca         1 15U      -0.007000
      9 C6          -3.1650    -1.8970    -0.2270 ca         1 15U      -0.174000
     10 C7          -2.3050    -1.6460    -1.3050 ca         1 15U       0.034000
     11 C8          -0.9370    -1.9760    -1.2140 ca         1 15U      -0.407500
     12 C9          -0.4460    -2.5780    -0.0450 ca         1 15U       0.450000
     13 C10          1.2350    -4.4250     3.5910 c3         1 15U      -0.085100
     14 N            0.8890    -2.9300     0.0820 nu         1 15U      -0.986200
     15 N1           0.9500    -0.2260    -2.0610 n7         1 15U      -0.846300
     16 CA           0.4320     0.5900    -0.9170 c3         1 15U       0.123500
     17 C           -0.8750     1.4090    -1.2520 c          1 15U       0.575100
     18 O           -0.9620     1.9520    -2.3490 o          1 15U      -0.568100
     19 CB           1.5490     1.5520    -0.4430 c3         1 15U      -0.062400
     20 CG           2.7590     0.8320     0.2020 c3         1 15U      -0.091400
     21 CD           3.8410     1.8080     0.7030 c3         1 15U       0.213800
     22 NE           4.9500     1.0710     1.3200 nu         1 15U      -0.942400
     23 CZ           5.9850     1.6940     1.8350 c2         1 15U       0.794100
     24 NH1          5.7060     1.6200     3.0890 nv         1 15U      -1.019200
     25 NH2          7.0980     1.3600     1.4110 n2         1 15U      -0.919100
     26 N2          -1.9200     1.5270    -0.2820 n          1 15U      -0.334800
     27 C11         -3.1100     2.4430    -0.5580 c6         1 15U      -0.047300
     28 C21         -4.2170     2.4830     0.5360 c6         1 15U      -0.081400
     29 C31         -3.6690     2.4820     1.9720 c6         1 15U      -0.063700
     30 C41         -2.8410     1.2010     2.1340 c6         1 15U      -0.104400
     31 C51         -1.6580     1.1360     1.1460 c6         1 15U       0.085000
     32 C61         -3.8320     2.2620    -1.9390 c          1 15U       0.742000
     33 O11         -4.0170     1.1220    -2.3430 o          1 15U      -0.714000
     34 O21         -3.8530     3.2300    -2.6910 o          1 15U      -0.714000
     35 C71         -2.8810     3.7750     2.3300 c3         1 15U      -0.082100
     36 H3           0.4830    -5.0290     1.6810 hc         1 15U       0.058700
     37 H4          -1.5000    -4.1430     2.7630 hc         1 15U       0.046700
     38 H5          -0.7270    -2.6020     3.1080 hc         1 15U       0.046700
     39 H6          -3.3430    -2.6480     1.7890 ha         1 15U       0.103000
     40 H7          -4.2150    -1.6280    -0.3010 ha         1 15U       0.124000
     41 H8          -2.7090    -1.1840    -2.2030 ha         1 15U       0.132000
     42 H9           0.5780    -5.0890     4.1660 hc         1 15U       0.033367
     43 H10          2.1980    -4.9360     3.4690 hc         1 15U       0.033367
     44 H11          1.4090    -3.5240     4.1910 hc         1 15U       0.033367
     45 H12          1.4580    -2.7920    -0.7570 hn         1 15U       0.531000
     46 H13          0.9050     0.3370    -2.9110 hn         1 15U       0.513000
     47 H14          0.2380    -0.0690    -0.0700 h1         1 15U       0.055700
     48 H15          1.8900     2.1630    -1.2890 hc         1 15U       0.065200
     49 H16          1.1290     2.2490     0.2920 hc         1 15U       0.065200
     50 H17          2.4070     0.2230     1.0440 hc         1 15U       0.051700
     51 H18          3.2060     0.1440    -0.5260 hc         1 15U       0.051700
     52 H19          4.2110     2.4050    -0.1420 h1         1 15U       0.040200
     53 H20          3.3960     2.4970     1.4340 h1         1 15U       0.040200
     54 H21          5.2210     0.2230     0.8370 hn         1 15U       0.468000
     55 H22          4.8290     1.1280     3.1320 hn         1 15U       0.458500
     56 H23          6.4560     1.1450     3.5650 hn         1 15U       0.458500
     57 H24          6.9860     1.1490     0.4150 hn         1 15U       0.376400
     58 H26         -2.6860     3.4570    -0.5930 h1         1 15U       0.037700
     59 H27         -4.8570     3.3630     0.3810 hc         1 15U       0.059700
     60 H28         -4.8750     1.6120     0.4100 hc         1 15U       0.059700
     61 H29         -4.5180     2.4390     2.6680 hc         1 15U       0.027700
     62 H30         -2.4680     1.1150     3.1640 hc         1 15U       0.031700
     63 H31         -3.4890     0.3280     1.9750 hc         1 15U       0.031700
     64 H32         -1.2940     0.1020     1.1820 h1         1 15U       0.041200
     65 H33         -0.8510     1.7750     1.5300 h1         1 15U       0.041200
     66 H35         -3.5180     4.6620     2.2310 hc         1 15U       0.025033
     67 H36         -2.5240     3.7410     3.3660 hc         1 15U       0.025033
     68 H37         -2.0080     3.9230     1.6840 hc         1 15U       0.025033
     69 H1           1.7040    -2.2220     1.9000 h1         1 15U       0.039700
     70 H2           2.5190    -3.6540     1.2290 h1         1 15U       0.039700
@<TRIPOS>BOND
     1     1     2 2   
     2     1     3 2   
     3     1    11 1   
     4     1    15 1   
     5     4     5 1   
     6     4    14 1   
     7     4    69 1   
     8     4    70 1   
     9     5     6 1   
    10     5    13 1   
    11     5    36 1   
    12     6     7 1   
    13     6    37 1   
    14     6    38 1   
    15     7     8 ar  
    16     7    12 ar  
    17     8     9 ar  
    18     8    39 1   
    19     9    10 ar  
    20     9    40 1   
    21    10    11 ar  
    22    10    41 1   
    23    11    12 ar  
    24    12    14 1   
    25    13    42 1   
    26    13    43 1   
    27    13    44 1   
    28    14    45 1   
    29    15    16 1   
    30    15    46 1   
    31    16    17 1   
    32    16    19 1   
    33    16    47 1   
    34    17    18 2   
    35    17    26 1   
    36    19    20 1   
    37    19    48 1   
    38    19    49 1   
    39    20    21 1   
    40    20    50 1   
    41    20    51 1   
    42    21    22 1   
    43    21    52 1   
    44    21    53 1   
    45    22    23 1   
    46    22    54 1   
    47    23    24 1   
    48    23    25 2   
    49    24    55 1   
    50    24    56 1   
    51    25    57 1   
    52    26    27 1   
    53    26    31 1   
    54    27    28 1   
    55    27    32 1   
    56    27    58 1   
    57    28    29 1   
    58    28    59 1   
    59    28    60 1   
    60    29    30 1   
    61    29    35 1   
    62    29    61 1   
    63    30    31 1   
    64    30    62 1   
    65    30    63 1   
    66    31    64 1   
    67    31    65 1   
    68    32    33 1   
    69    32    34 1   
    70    35    66 1   
    71    35    67 1   
    72    35    68 1   
@<TRIPOS>SUBSTRUCTURE
     1 15U         1 TEMP              0 ****  ****    0 ROOT
