@<TRIPOS>MOLECULE
15V
   38    41     1     0     0
SMALL
No Charge or Current Charge


@<TRIPOS>ATOM
      1 C4           5.0940     1.9650    -0.4770 cc         1 15V      -0.033000
      2 C14         -3.6950     1.4330    -1.6180 ca         1 15V      -0.093000
      3 C5           2.1660     0.0160    -0.1530 cc         1 15V      -0.373800
      4 C6           1.6900     1.3210    -0.3660 cc         1 15V       0.419500
      5 C11         -2.8170    -0.2750    -0.1110 ca         1 15V       0.029800
      6 C7           1.3600    -1.1970     0.0480 c          1 15V       0.669300
      7 C8          -2.3530    -3.6460     0.4460 cc         1 15V       0.275300
      8 C9          -1.0150    -3.2040     0.3790 cc         1 15V      -0.226000
      9 C10         -1.0530    -1.8600     0.1620 cd         1 15V       0.021600
     10 C13         -3.3140     0.1010    -1.3750 ca         1 15V      -0.094000
     11 N1           4.3730    -0.9200    -0.0030 nd         1 15V      -0.613000
     12 N2           3.7920     1.4950    -0.3980 na         1 15V       0.116900
     13 C3           3.5170     0.1450    -0.1760 cd         1 15V       0.433500
     14 N3           2.6280     2.2430    -0.5190 nd         1 15V      -0.570100
     15 C16         -3.0880     2.0200     0.6630 ca         1 15V       0.123000
     16 C15         -3.5800     2.3930    -0.5980 ca         1 15V      -0.105000
     17 C17         -2.7080     0.6910     0.9090 ca         1 15V      -0.129000
     18 N5          -2.4250    -1.5930     0.1230 na         1 15V       0.176000
     19 N4          -3.2500    -2.6900     0.2880 nd         1 15V      -0.517800
     20 N6          -0.0020    -0.9620     0.0080 ns         1 15V      -0.413100
     21 O1           1.8270    -2.3100     0.2330 o          1 15V      -0.545100
     22 C2           5.6740    -0.4320    -0.0850 cd         1 15V       0.385900
     23 C1           6.0340     0.9520    -0.3120 cd         1 15V      -0.220000
     24 H1           5.2710     3.0200    -0.6500 h4         1 15V       0.168000
     25 H2          -4.0780     1.7190    -2.5960 ha         1 15V       0.125000
     26 H3           0.6580     1.6440    -0.4170 h4         1 15V       0.052800
     27 H4          -0.1470    -3.8450     0.4800 ha         1 15V       0.168000
     28 H5          -2.2670    -5.4520     1.6070 hc         1 15V       0.049033
     29 H6          -3.7940    -5.2250     0.7340 hc         1 15V       0.049033
     30 H7          -2.3330    -5.7110    -0.1470 hc         1 15V       0.049033
     31 H8          -3.4020    -0.6410    -2.1660 ha         1 15V       0.143000
     32 H9          -3.8730     3.4240    -0.7830 ha         1 15V       0.134000
     33 H10         -2.3290     0.4110     1.8890 ha         1 15V       0.146000
     34 H11         -0.2430     0.0050    -0.1570 hn         1 15V       0.327500
     35 H12          6.4520    -1.1750     0.0360 h4         1 15V       0.039100
     36 H13          7.0880     1.2040    -0.3550 ha         1 15V       0.148000
     37 C12         -2.7080    -5.0870     0.6720 c3         1 15V      -0.121400
     38 Cl1         -2.9420     3.2210     1.9390 cl         1 15V      -0.194000
@<TRIPOS>BOND
     1     1    12 1   
     2     1    23 2   
     3     1    24 1   
     4     2    10 ar  
     5     2    16 ar  
     6     2    25 1   
     7     3     4 1   
     8     3     6 1   
     9     3    13 2   
    10     4    14 2   
    11     4    26 1   
    12     5    10 ar  
    13     5    17 ar  
    14     5    18 1   
    15     6    20 1   
    16     6    21 2   
    17     7     8 1   
    18     7    19 2   
    19     7    37 1   
    20     8     9 2   
    21     8    27 1   
    22     9    18 1   
    23     9    20 1   
    24    10    31 1   
    25    11    13 1   
    26    11    22 2   
    27    12    13 1   
    28    12    14 1   
    29    15    16 ar  
    30    15    17 ar  
    31    15    38 1   
    32    16    32 1   
    33    17    33 1   
    34    18    19 1   
    35    20    34 1   
    36    22    23 1   
    37    22    35 1   
    38    23    36 1   
    39    28    37 1   
    40    29    37 1   
    41    30    37 1   
@<TRIPOS>SUBSTRUCTURE
     1 15V         1 TEMP              0 ****  ****    0 ROOT
