@<TRIPOS>MOLECULE
15V
   38    41     1     0     0
SMALL
bcc


@<TRIPOS>ATOM
      1 C4           5.1730     1.8640    -0.3090 cc         1 15V      -0.000300
      2 C14         -4.3960     1.2010    -1.1880 ca         1 15V      -0.111000
      3 C5           2.1740     0.0710    -0.0870 cc         1 15V      -0.373800
      4 C6           1.7960     1.3940    -0.3700 cc         1 15V       0.419500
      5 C11         -2.7890    -0.2510    -0.1660 ca         1 15V       0.029800
      6 C7           1.3500    -1.1090     0.1570 c          1 15V       0.736300
      7 C8          -2.2750    -3.6380     0.2970 cc         1 15V       0.340600
      8 C9          -0.9160    -3.2730     0.1810 cc         1 15V      -0.309300
      9 C10         -0.9410    -1.9150    -0.0180 cd         1 15V       0.072300
     10 C13         -3.8680    -0.0690    -1.0230 ca         1 15V      -0.112000
     11 N1           4.5110    -0.7950     0.1990 nd         1 15V      -0.613000
     12 N2           3.8920     1.4410    -0.2790 na         1 15V       0.066200
     13 C3           3.5690     0.1250    -0.0250 cd         1 15V       0.433500
     14 N3           2.8200     2.2140    -0.4830 nd         1 15V      -0.570100
     15 C16         -2.7740     2.0880     0.3190 ca         1 15V       0.031400
     16 C15         -3.8490     2.2950    -0.5300 ca         1 15V      -0.123000
     17 C17         -2.2470     0.8250     0.5300 ca         1 15V      -0.147000
     18 N5          -2.2480    -1.5390     0.0070 na         1 15V       0.125300
     19 N4          -3.0650    -2.5940     0.1770 nd         1 15V      -0.517800
     20 N6           0.0500    -0.9840    -0.2560 ns         1 15V      -0.480100
     21 O1           1.7710    -2.1160     0.6940 o          1 15V      -0.545100
     22 C2           5.7550    -0.3930     0.1720 cd         1 15V       0.451200
     23 C1           6.1440     0.9420    -0.0790 cd         1 15V      -0.303300
     24 H1           5.3400     2.9110    -0.5140 h4         1 15V       0.186000
     25 H2          -5.2380     1.3460    -1.8510 ha         1 15V       0.143000
     26 H3           0.7980     1.7950    -0.4810 h4         1 15V       0.052800
     27 H4          -0.0590    -3.9210     0.2150 ha         1 15V       0.186000
     28 H5          -2.5210    -5.3930     1.4960 hc         1 15V       0.049033
     29 H6          -3.9120    -4.9960     0.4860 hc         1 15V       0.049033
     30 H7          -2.4610    -5.7010    -0.2310 hc         1 15V       0.049033
     31 H8          -4.2850    -0.9110    -1.5550 ha         1 15V       0.161000
     32 H9          -4.2550     3.2860    -0.6770 ha         1 15V       0.152000
     33 H10         -1.4420     0.6810     1.2380 ha         1 15V       0.164000
     34 H11         -0.1960    -0.1930    -0.8340 hn         1 15V       0.327500
     35 H12          6.5150    -1.1430     0.3540 h4         1 15V       0.039100
     36 H13          7.1840     1.2250    -0.0920 ha         1 15V       0.166000
     37 C12         -2.8240    -5.0030     0.5240 c3         1 15V      -0.121400
     38 CL1         -2.0730     3.4320     1.1550 cl         1 15V      -0.102400
@<TRIPOS>BOND
     1     1    12 1   
     2     1    23 2   
     3     1    24 1   
     4     2    10 ar  
     5     2    16 ar  
     6     2    25 1   
     7     3     4 1   
     8     3     6 1   
     9     3    13 2   
    10     4    14 2   
    11     4    26 1   
    12     5    10 ar  
    13     5    17 ar  
    14     5    18 1   
    15     6    20 1   
    16     6    21 2   
    17     7     8 1   
    18     7    19 2   
    19     7    37 1   
    20     8     9 2   
    21     8    27 1   
    22     9    18 1   
    23     9    20 1   
    24    10    31 1   
    25    11    13 1   
    26    11    22 2   
    27    12    13 1   
    28    12    14 1   
    29    15    16 ar  
    30    15    17 ar  
    31    15    38 1   
    32    16    32 1   
    33    17    33 1   
    34    18    19 1   
    35    20    34 1   
    36    22    23 1   
    37    22    35 1   
    38    23    36 1   
    39    28    37 1   
    40    29    37 1   
    41    30    37 1   
@<TRIPOS>SUBSTRUCTURE
     1 15V         1 TEMP              0 ****  ****    0 ROOT
