@<TRIPOS>MOLECULE
15W
   32    34     1     0     0
SMALL
abcg2


@<TRIPOS>ATOM
      1 CAS         -6.1040     1.7420     0.0300 c3         1 15W       0.146900
      2 OAR         -5.6060     0.4150     0.0200 os         1 15W      -0.335100
      3 CAP         -4.2810     0.2260     0.0180 ca         1 15W       0.167100
      4 CAO         -3.3360     1.2490     0.0270 ca         1 15W      -0.184000
      5 CAN         -1.9840     0.9420     0.0260 ca         1 15W      -0.032500
      6 CAL         -3.8450    -1.1040     0.0090 ca         1 15W      -0.184000
      7 CAM         -2.5000    -1.3950     0.0070 ca         1 15W      -0.032500
      8 CAK         -1.5360    -0.3780     0.0160 ca         1 15W      -0.116800
      9 CAI         -0.1070    -0.6950     0.0130 cc         1 15W       0.219900
     10 OAJ          0.6600     0.4050     0.0690 os         1 15W      -0.225200
     11 CAF          2.0070     0.3190     0.0700 ca         1 15W       0.201100
     12 CAA          2.7000     1.5210     0.1230 ca         1 15W      -0.255000
     13 CAB          4.0860     1.4900     0.1310 ca         1 15W       0.197100
     14 OAT          4.8310     2.5990     0.1840 oh         1 15W      -0.522100
     15 CAC          4.7670     0.2610     0.0830 ca         1 15W      -0.182000
     16 CAD          4.0540    -0.9110     0.0300 ca         1 15W       0.011000
     17 CAE          2.6540    -0.9110     0.0220 ca         1 15W      -0.265600
     18 CAG          1.8680    -2.1420    -0.0340 c          1 15W       0.601900
     19 OAQ          2.3820    -3.2560    -0.0760 o          1 15W      -0.550100
     20 CAH          0.4380    -1.9330    -0.0390 cd         1 15W      -0.391200
     21 H1          -5.7900     2.2980    -0.8560 h1         1 15W       0.045033
     22 H2          -7.1880     1.6630     0.0330 h1         1 15W       0.045033
     23 H3          -5.7860     2.2850     0.9230 h1         1 15W       0.045033
     24 H4          -3.6290     2.2900     0.0340 ha         1 15W       0.127500
     25 H5          -1.2830     1.7650     0.0320 ha         1 15W       0.124500
     26 H6          -4.5740    -1.9040     0.0030 ha         1 15W       0.127500
     27 H7          -2.2070    -2.4360     0.0020 ha         1 15W       0.124500
     28 H8           2.1560     2.4580     0.1610 ha         1 15W       0.132000
     29 H9           4.2770     3.3880     0.2080 ho         1 15W       0.472000
     30 H10          5.8490     0.2500     0.0880 ha         1 15W       0.137000
     31 H11          4.5790    -1.8560    -0.0090 ha         1 15W       0.141000
     32 H12         -0.2020    -2.8020    -0.0860 ha         1 15W       0.212000
@<TRIPOS>BOND
     1     1     2 1   
     2     1    21 1   
     3     1    22 1   
     4     1    23 1   
     5     2     3 1   
     6     3     4 ar  
     7     3     6 ar  
     8     4     5 ar  
     9     4    24 1   
    10     5     8 ar  
    11     5    25 1   
    12     6     7 ar  
    13     6    26 1   
    14     7     8 ar  
    15     7    27 1   
    16     8     9 1   
    17     9    10 1   
    18     9    20 2   
    19    10    11 1   
    20    11    12 ar  
    21    11    17 ar  
    22    12    13 ar  
    23    12    28 1   
    24    13    14 1   
    25    13    15 ar  
    26    14    29 1   
    27    15    16 ar  
    28    15    30 1   
    29    16    17 ar  
    30    16    31 1   
    31    17    18 1   
    32    18    19 2   
    33    18    20 1   
    34    20    32 1   
@<TRIPOS>SUBSTRUCTURE
     1 15W         1 TEMP              0 ****  ****    0 ROOT
