@<TRIPOS>MOLECULE
15W
   32    34     1     0     0
SMALL
No Charge or Current Charge


@<TRIPOS>ATOM
      1 CAS         -6.3660     1.5690    -0.0540 c3         1 15W       0.146900
      2 OAR         -5.6950     0.3630     0.3530 os         1 15W      -0.335100
      3 CAP         -4.3310     0.2010     0.2250 ca         1 15W       0.167100
      4 CAO         -3.4910     1.2010    -0.3100 ca         1 15W      -0.184000
      5 CAN         -2.1070     0.9770    -0.4140 ca         1 15W      -0.032500
      6 CAL         -3.7710    -1.0110     0.6520 ca         1 15W      -0.184000
      7 CAM         -2.3880    -1.2370     0.5480 ca         1 15W      -0.032500
      8 CAK         -1.5410    -0.2450     0.0070 ca         1 15W      -0.116800
      9 CAI         -0.0950    -0.4610    -0.1020 cc         1 15W       0.219900
     10 OAJ          0.7360     0.6450    -0.0280 os         1 15W      -0.225200
     11 CAF          2.0980     0.3980     0.0550 ca         1 15W       0.201100
     12 CAA          2.9200     1.4950     0.3630 ca         1 15W      -0.255000
     13 CAB          4.3100     1.3450     0.4360 ca         1 15W       0.197100
     14 OAT          5.0990     2.4110     0.7400 oh         1 15W      -0.522100
     15 CAC          4.8950     0.0970     0.1920 ca         1 15W      -0.182000
     16 CAD          4.0880    -1.0050    -0.1280 ca         1 15W       0.011000
     17 CAE          2.6880    -0.8510    -0.1980 ca         1 15W      -0.265600
     18 CAG          1.8120    -1.9890    -0.5310 c          1 15W       0.601900
     19 OAQ          2.2390    -3.0910    -0.8440 o          1 15W      -0.550100
     20 CAH          0.3970    -1.7040    -0.4320 cd         1 15W      -0.391200
     21 H1          -6.2220     1.7530    -1.1270 h1         1 15W       0.045033
     22 H2          -7.4440     1.4860     0.1340 h1         1 15W       0.045033
     23 H3          -5.9890     2.4340     0.5060 h1         1 15W       0.045033
     24 H4          -3.8910     2.1520    -0.6480 ha         1 15W       0.127500
     25 H5          -1.4740     1.7580    -0.8320 ha         1 15W       0.124500
     26 H6          -4.4140    -1.7810     1.0710 ha         1 15W       0.127500
     27 H7          -1.9770    -2.1800     0.9020 ha         1 15W       0.124500
     28 H8           2.4620     2.4630     0.5450 ha         1 15W       0.132000
     29 H9           4.5200     3.1910     0.8760 ho         1 15W       0.472000
     30 H10          5.9750    -0.0170     0.2470 ha         1 15W       0.137000
     31 H11          4.5520    -1.9720    -0.3200 ha         1 15W       0.141000
     32 H12         -0.2450    -2.5540    -0.6200 ha         1 15W       0.212000
@<TRIPOS>BOND
     1     1     2 1   
     2     1    21 1   
     3     1    22 1   
     4     1    23 1   
     5     2     3 1   
     6     3     4 ar  
     7     3     6 ar  
     8     4     5 ar  
     9     4    24 1   
    10     5     8 ar  
    11     5    25 1   
    12     6     7 ar  
    13     6    26 1   
    14     7     8 ar  
    15     7    27 1   
    16     8     9 1   
    17     9    10 1   
    18     9    20 2   
    19    10    11 1   
    20    11    12 ar  
    21    11    17 ar  
    22    12    13 ar  
    23    12    28 1   
    24    13    14 1   
    25    13    15 ar  
    26    14    29 1   
    27    15    16 ar  
    28    15    30 1   
    29    16    17 ar  
    30    16    31 1   
    31    17    18 1   
    32    18    19 2   
    33    18    20 1   
    34    20    32 1   
@<TRIPOS>SUBSTRUCTURE
     1 15W         1 TEMP              0 ****  ****    0 ROOT
