@<TRIPOS>MOLECULE
15X
   47    49     1     0     0
SMALL
bcc


@<TRIPOS>ATOM
      1 C1          -2.4930    -0.2860     0.6830 cp         1 15X      -0.020000
      2 C2          -3.3480     0.5690     0.0010 ca         1 15X      -0.046000
      3 C3          -4.1730     1.4190     0.7230 ca         1 15X      -0.181200
      4 C4          -4.1730     1.4430     2.1100 ca         1 15X      -0.062000
      5 C5          -3.3170     0.5870     2.7810 ca         1 15X      -0.144000
      6 C6          -2.4850    -0.2700     2.0770 ca         1 15X      -0.058000
      7 C13          0.1130    -2.8650    -1.4800 ca         1 15X      -0.055000
      8 C14          0.3070    -1.4960    -1.5740 ca         1 15X      -0.153300
      9 C15         -0.5750    -0.7050    -0.8490 ca         1 15X       0.195900
     10 C16         -1.5990    -1.1980    -0.0630 cp         1 15X      -0.136000
     11 C17         -1.7590    -2.5910     0.0050 ca         1 15X       0.182100
     12 C18         -0.8990    -3.4210    -0.7070 ca         1 15X      -0.235000
     13 C28          2.4690    -0.2100    -1.5550 ca         1 15X      -0.112300
     14 C30          3.1660    -0.9110    -0.5760 ca         1 15X      -0.089000
     15 C31          4.1570    -0.3210     0.1940 ca         1 15X      -0.172500
     16 C32          4.4860     1.0220    -0.0060 ca         1 15X       0.092600
     17 C33          3.7850     1.7350    -0.9830 ca         1 15X      -0.172500
     18 C34          2.7950     1.1290    -1.7360 ca         1 15X      -0.089000
     19 C43         -2.9850    -4.4170     0.8900 c3         1 15X       0.122700
     20 O43         -2.7720    -3.0230     0.7700 os         1 15X      -0.310900
     21 N47         -5.0690     2.3100    -0.0000 no         1 15X       0.315200
     22 O49         -5.0510     2.2780    -1.2080 o          1 15X      -0.212000
     23 N51          5.4570     1.7230     0.7070 ns         1 15X      -0.489100
     24 O51         -5.7860     3.0390     0.6430 o          1 15X      -0.212000
     25 C53          6.3910     1.2430     1.5880 c          1 15X       0.788100
     26 N55          7.2080     2.2050     2.0890 nt         1 15X      -0.673000
     27 O57          6.4660     0.0710     1.9280 o          1 15X      -0.622100
     28 F59         -0.4220     0.6270    -0.9110 f          1 15X      -0.130900
     29 H2          -3.3740     0.5570    -1.0790 ha         1 15X       0.172000
     30 H4          -4.8190     2.1100     2.6620 ha         1 15X       0.167000
     31 H5          -3.2990     0.5910     3.8620 ha         1 15X       0.145000
     32 H6          -1.8160    -0.9270     2.6170 ha         1 15X       0.146000
     33 H13          0.7700    -3.5270    -2.0300 ha         1 15X       0.136000
     34 H18         -1.0060    -4.4970    -0.6800 ha         1 15X       0.144000
     35 H26          1.8680    -1.6730    -2.9940 hc         1 15X       0.057200
     36 H26A         0.9980    -0.1650    -3.1040 hc         1 15X       0.057200
     37 H30          2.9320    -1.9550    -0.3970 ha         1 15X       0.131500
     38 H31          4.6630    -0.9100     0.9400 ha         1 15X       0.146000
     39 H33          4.0190     2.7800    -1.1550 ha         1 15X       0.146000
     40 H34          2.2740     1.7150    -2.4830 ha         1 15X       0.131500
     41 H43         -3.2240    -4.8750    -0.0730 h1         1 15X       0.045367
     42 H43A        -2.1190    -4.9260     1.3190 h1         1 15X       0.045367
     43 H43B        -3.8330    -4.5410     1.5580 h1         1 15X       0.045367
     44 HN51         5.5060     2.7060     0.4860 hn         1 15X       0.310500
     45 HN55         7.2970     3.1020     1.6410 hn         1 15X       0.310000
     46 HN5A         8.0220     1.8950     2.5930 hn         1 15X       0.310000
     47 C26          1.4100    -0.8840    -2.3920 c3         1 15X       0.035200
@<TRIPOS>BOND
     1     1     2 ar  
     2     1     6 ar  
     3     1    10 1   
     4     2     3 ar  
     5     2    29 1   
     6     3     4 ar  
     7     3    21 1   
     8     4     5 ar  
     9     4    30 1   
    10     5     6 ar  
    11     5    31 1   
    12     6    32 1   
    13     7     8 ar  
    14     7    12 ar  
    15     7    33 1   
    16     8     9 ar  
    17     8    47 1   
    18     9    10 ar  
    19     9    28 1   
    20    10    11 ar  
    21    11    12 ar  
    22    11    20 1   
    23    12    34 1   
    24    13    14 ar  
    25    13    18 ar  
    26    13    47 1   
    27    14    15 ar  
    28    14    37 1   
    29    15    16 ar  
    30    15    38 1   
    31    16    17 ar  
    32    16    23 1   
    33    17    18 ar  
    34    17    39 1   
    35    18    40 1   
    36    19    20 1   
    37    19    41 1   
    38    19    42 1   
    39    19    43 1   
    40    21    22 1   
    41    21    24 1   
    42    23    25 1   
    43    23    44 1   
    44    25    26 1   
    45    25    27 2   
    46    26    45 1   
    47    26    46 1   
    48    35    47 1   
    49    36    47 1   
@<TRIPOS>SUBSTRUCTURE
     1 15X         1 TEMP              0 ****  ****    0 ROOT
