@<TRIPOS>MOLECULE
15X
   47    49     1     0     0
SMALL
No Charge or Current Charge


@<TRIPOS>ATOM
      1 C1          -2.7160    -0.2240     0.6460 cp         1 15X      -0.020000
      2 C2          -3.5360     0.6420    -0.1180 ca         1 15X      -0.028000
      3 C3          -4.5070     1.4690     0.4960 ca         1 15X      -0.181200
      4 C4          -4.6560     1.4250     1.9020 ca         1 15X      -0.044000
      5 C5          -3.8480     0.5710     2.6710 ca         1 15X      -0.126000
      6 C6          -2.8880    -0.2440     2.0500 ca         1 15X      -0.040000
      7 C13          0.2800    -2.7050    -1.2770 ca         1 15X      -0.037000
      8 C14          0.2770    -1.3160    -1.4950 ca         1 15X      -0.153300
      9 C15         -0.7030    -0.5210    -0.8640 ca         1 15X       0.231000
     10 C16         -1.6870    -1.0890    -0.0150 cp         1 15X      -0.136000
     11 C17         -1.6610    -2.4940     0.1840 ca         1 15X       0.182100
     12 C18         -0.6830    -3.2930    -0.4430 ca         1 15X      -0.217000
     13 C28          2.5000    -0.1310    -1.5780 ca         1 15X      -0.112300
     14 C30          3.4740    -0.9960    -1.0490 ca         1 15X      -0.071000
     15 C31          4.5440    -0.4880    -0.2900 ca         1 15X      -0.154500
     16 C32          4.6540     0.8980    -0.0490 ca         1 15X       0.000000
     17 C33          3.6750     1.7580    -0.5800 ca         1 15X      -0.154500
     18 C34          2.6060     1.2510    -1.3380 ca         1 15X      -0.071000
     19 C43         -2.7260    -4.4460     1.2650 c3         1 15X       0.145900
     20 O43         -2.6410    -3.0360     0.9940 os         1 15X      -0.334100
     21 N47         -5.3650     2.3760    -0.3320 no         1 15X       0.695200
     22 O49         -5.1990     2.3810    -1.5590 o          1 15X      -0.402000
     23 N51          5.7050     1.4840     0.7080 ns         1 15X      -0.163000
     24 O51         -6.2020     3.0810     0.2480 o          1 15X      -0.402000
     25 C53          6.8050     0.9390     1.3500 c          1 15X       0.654100
     26 N55          7.5740     1.8570     1.9690 nt         1 15X      -0.606000
     27 O57          7.1040    -0.2420     1.3890 o          1 15X      -0.622100
     28 F59         -0.6880     0.8190    -1.0620 f          1 15X      -0.166000
     29 H2          -3.4090     0.6560    -1.1990 ha         1 15X       0.154000
     30 H4          -5.3930     2.0480     2.4060 ha         1 15X       0.149000
     31 H5          -3.9650     0.5420     3.7520 ha         1 15X       0.127000
     32 H6          -2.2670    -0.8950     2.6600 ha         1 15X       0.128000
     33 H13          1.0320    -3.3320    -1.7520 ha         1 15X       0.118000
     34 H18         -0.6540    -4.3690    -0.2990 ha         1 15X       0.126000
     35 H26          1.7180    -1.4340    -3.1060 hc         1 15X       0.057200
     36 H26A         0.8950     0.0970    -3.0150 hc         1 15X       0.057200
     37 H30          3.4030    -2.0680    -1.2230 ha         1 15X       0.113500
     38 H31          5.2730    -1.1900     0.1010 ha         1 15X       0.128000
     39 H33          3.7400     2.8300    -0.4050 ha         1 15X       0.128000
     40 H34          1.8600     1.9350    -1.7370 ha         1 15X       0.113500
     41 H43         -2.8740    -5.0130     0.3380 h1         1 15X       0.045367
     42 H43A        -1.8130    -4.8040     1.7580 h1         1 15X       0.045367
     43 H43B        -3.5740    -4.6540     1.9290 h1         1 15X       0.045367
     44 HN51         5.6330     2.4890     0.7920 hn         1 15X       0.144000
     45 HN55         7.3280     2.8350     1.9380 hn         1 15X       0.310000
     46 HN5A         8.3980     1.5510     2.4630 hn         1 15X       0.310000
     47 C26          1.3400    -0.6900    -2.3930 c3         1 15X       0.035200
@<TRIPOS>BOND
     1     1     2 ar  
     2     1     6 ar  
     3     1    10 1   
     4     2     3 ar  
     5     2    29 1   
     6     3     4 ar  
     7     3    21 1   
     8     4     5 ar  
     9     4    30 1   
    10     5     6 ar  
    11     5    31 1   
    12     6    32 1   
    13     7     8 ar  
    14     7    12 ar  
    15     7    33 1   
    16     8     9 ar  
    17     8    47 1   
    18     9    10 ar  
    19     9    28 1   
    20    10    11 ar  
    21    11    12 ar  
    22    11    20 1   
    23    12    34 1   
    24    13    14 ar  
    25    13    18 ar  
    26    13    47 1   
    27    14    15 ar  
    28    14    37 1   
    29    15    16 ar  
    30    15    38 1   
    31    16    17 ar  
    32    16    23 1   
    33    17    18 ar  
    34    17    39 1   
    35    18    40 1   
    36    19    20 1   
    37    19    41 1   
    38    19    42 1   
    39    19    43 1   
    40    21    22 1   
    41    21    24 1   
    42    23    25 1   
    43    23    44 1   
    44    25    26 1   
    45    25    27 2   
    46    26    45 1   
    47    26    46 1   
    48    35    47 1   
    49    36    47 1   
@<TRIPOS>SUBSTRUCTURE
     1 15X         1 TEMP              0 ****  ****    0 ROOT
