@<TRIPOS>MOLECULE
15Y
   27    28     1     0     0
SMALL
No Charge or Current Charge


@<TRIPOS>ATOM
      1 S            2.3580     0.5980    -0.0700 s6         1 15Y       1.263100
      2 O1           3.3590    -0.0920    -0.8980 o          1 15Y      -0.698533
      3 O2           1.7910     1.8300    -0.6380 o          1 15Y      -0.698533
      4 C1          -2.1090     1.6470    -0.3090 c6         1 15Y       0.239800
      5 C2          -3.1280     0.7380     0.4150 c6         1 15Y      -0.091700
      6 C3          -2.9200    -0.7330    -0.0270 c6         1 15Y      -0.006100
      7 C4          -1.4400    -1.1460    -0.0520 ca         1 15Y      -0.207300
      8 C5          -1.1240    -2.5140    -0.1050 ca         1 15Y      -0.049000
      9 C6           0.2150    -2.9190    -0.1480 ca         1 15Y      -0.212000
     10 C7           1.2420    -1.9650    -0.1450 ca         1 15Y       0.015000
     11 C8           0.9460    -0.5850    -0.1100 ca         1 15Y      -0.309500
     12 C9          -0.4030    -0.1770    -0.0550 ca         1 15Y       0.425000
     13 C10         -4.5890     1.2100     0.1880 c3         1 15Y      -0.082100
     14 N           -0.7600     1.1660     0.0020 nu         1 15Y      -0.971200
     15 H3          -2.9440     0.8070     1.4960 hc         1 15Y       0.057700
     16 H4          -3.4860    -1.3990     0.6390 hc         1 15Y       0.030200
     17 H5          -3.3380    -0.8770    -1.0330 hc         1 15Y       0.030200
     18 H6          -1.9150    -3.2600    -0.1120 ha         1 15Y       0.079000
     19 H7           0.4590    -3.9780    -0.1810 ha         1 15Y       0.091000
     20 H8           2.2760    -2.3060    -0.1670 ha         1 15Y       0.130000
     21 H9          -5.2990     0.5720     0.7270 hc         1 15Y       0.025367
     22 H10         -4.7310     2.2380     0.5430 hc         1 15Y       0.025367
     23 H11         -4.8570     1.1840    -0.8760 hc         1 15Y       0.025367
     24 H12          0.0350     1.7820    -0.2170 hn         1 15Y       0.528000
     25 O3           2.6500     0.6370     1.3700 o          1 15Y      -0.698533
     26 H1          -2.2880     1.6040    -1.3940 h1         1 15Y       0.030700
     27 H2          -2.2310     2.6920     0.0120 h1         1 15Y       0.030700
@<TRIPOS>BOND
     1     1     2 1   
     2     1     3 1   
     3     1    11 1   
     4     1    25 1   
     5     4     5 1   
     6     4    14 1   
     7     4    26 1   
     8     4    27 1   
     9     5     6 1   
    10     5    13 1   
    11     5    15 1   
    12     6     7 1   
    13     6    16 1   
    14     6    17 1   
    15     7     8 ar  
    16     7    12 ar  
    17     8     9 ar  
    18     8    18 1   
    19     9    10 ar  
    20     9    19 1   
    21    10    11 ar  
    22    10    20 1   
    23    11    12 ar  
    24    12    14 1   
    25    13    21 1   
    26    13    22 1   
    27    13    23 1   
    28    14    24 1   
@<TRIPOS>SUBSTRUCTURE
     1 15Y         1 TEMP              0 ****  ****    0 ROOT
