@<TRIPOS>MOLECULE
15Y
   27    28     1     0     0
SMALL
bcc


@<TRIPOS>ATOM
      1 S            2.2580     0.5510    -0.1460 s6         1 15Y       1.263100
      2 O1           2.2600     0.9750    -1.5580 o          1 15Y      -0.698533
      3 O2           1.9290     1.6630     0.7760 o          1 15Y      -0.698533
      4 C1          -2.1010     1.6080    -0.4180 c6         1 15Y       0.239800
      5 C2          -3.0950     0.7070     0.3000 c6         1 15Y      -0.091700
      6 C3          -2.8870    -0.7200    -0.1940 c6         1 15Y      -0.006100
      7 C4          -1.4500    -1.1510    -0.0810 ca         1 15Y      -0.207300
      8 C5          -1.1200    -2.4860     0.0890 ca         1 15Y      -0.067000
      9 C6           0.1970    -2.9070     0.2180 ca         1 15Y      -0.230000
     10 C7           1.2060    -1.9590     0.1740 ca         1 15Y      -0.003000
     11 C8           0.9110    -0.6140     0.0040 ca         1 15Y      -0.309500
     12 C9          -0.4280    -0.1800    -0.1250 ca         1 15Y       0.286600
     13 C10         -4.5210     1.1800     0.0710 c3         1 15Y      -0.082100
     14 N           -0.7410     1.1360    -0.2920 nu         1 15Y      -0.777600
     15 H3          -2.8760     0.7410     1.3740 hc         1 15Y       0.057700
     16 H4          -3.5220    -1.4120     0.3650 hc         1 15Y       0.030200
     17 H5          -3.2160    -0.7820    -1.2380 hc         1 15Y       0.030200
     18 H6          -1.9230    -3.2140     0.1320 ha         1 15Y       0.097000
     19 H7           0.4310    -3.9540     0.3530 ha         1 15Y       0.109000
     20 H8           2.2380    -2.2660     0.2750 ha         1 15Y       0.148000
     21 H9          -5.2370     0.5430     0.5920 hc         1 15Y       0.025367
     22 H10         -4.6670     2.2000     0.4290 hc         1 15Y       0.025367
     23 H11         -4.7730     1.1620    -0.9920 hc         1 15Y       0.025367
     24 H12         -0.0480     1.8080    -0.0030 hn         1 15Y       0.472800
     25 O3           3.4780    -0.1740     0.2460 o          1 15Y      -0.698533
     26 H1          -2.3910     1.6790    -1.4760 h1         1 15Y       0.030700
     27 H2          -2.1420     2.6210    -0.0160 h1         1 15Y       0.030700
@<TRIPOS>BOND
     1     1     2 1   
     2     1     3 1   
     3     1    11 1   
     4     1    25 1   
     5     4     5 1   
     6     4    14 1   
     7     4    26 1   
     8     4    27 1   
     9     5     6 1   
    10     5    13 1   
    11     5    15 1   
    12     6     7 1   
    13     6    16 1   
    14     6    17 1   
    15     7     8 ar  
    16     7    12 ar  
    17     8     9 ar  
    18     8    18 1   
    19     9    10 ar  
    20     9    19 1   
    21    10    11 ar  
    22    10    20 1   
    23    11    12 ar  
    24    12    14 1   
    25    13    21 1   
    26    13    22 1   
    27    13    23 1   
    28    14    24 1   
@<TRIPOS>SUBSTRUCTURE
     1 15Y         1 TEMP              0 ****  ****    0 ROOT
