@<TRIPOS>MOLECULE
15Z
   30    32     1     0     0
SMALL
No Charge or Current Charge


@<TRIPOS>ATOM
      1 CAM         -2.2850     0.8000    -0.5360 ca         1 15Z      -0.119000
      2 CAL         -3.6780     0.9760    -0.4570 ca         1 15Z       0.034100
      3 OAT         -4.2560     2.1340    -0.9140 oh         1 15Z      -0.557100
      4 CAP         -4.4830    -0.0410     0.0920 ca         1 15Z       0.149100
      5 OAS         -5.8320     0.1380     0.1660 oh         1 15Z      -0.526100
      6 CAO         -3.8990    -1.2250     0.5640 ca         1 15Z      -0.133000
      7 CAN         -2.5060    -1.4000     0.4840 ca         1 15Z      -0.066000
      8 CAK         -1.6850    -0.3930    -0.0720 ca         1 15Z      -0.078800
      9 CAJ         -0.2300    -0.5640    -0.1530 cc         1 15Z       0.210900
     10 OAG          0.5650     0.5700    -0.0870 os         1 15Z      -0.224200
     11 CAF          1.9330     0.3680     0.0230 ca         1 15Z       0.199100
     12 CAA          2.7140     1.4970     0.3200 ca         1 15Z      -0.256000
     13 CAB          4.1070     1.3940     0.4170 ca         1 15Z       0.197100
     14 OAR          4.8560     2.4910     0.7110 oh         1 15Z      -0.522100
     15 CAC          4.7360     0.1610     0.2090 ca         1 15Z      -0.181000
     16 CAD          3.9700    -0.9740    -0.1000 ca         1 15Z       0.011000
     17 CAE          2.5660    -0.8670    -0.1940 ca         1 15Z      -0.265600
     18 CAH          1.7330    -2.0390    -0.5170 c          1 15Z       0.600900
     19 OAQ          2.2000    -3.1330    -0.7990 o          1 15Z      -0.547100
     20 CAI          0.3080    -1.7980    -0.4470 cd         1 15Z      -0.383200
     21 H1          -1.6640     1.5840    -0.9630 ha         1 15Z       0.126000
     22 H2          -3.5550     2.7290    -1.2610 ho         1 15Z       0.478000
     23 H3          -6.0040     1.0280    -0.2170 ho         1 15Z       0.488000
     24 H4          -4.5230    -2.0040     0.9930 ha         1 15Z       0.138000
     25 H5          -2.0670    -2.3180     0.8700 ha         1 15Z       0.128000
     26 H6           2.2220     2.4540     0.4740 ha         1 15Z       0.131000
     27 H7           4.2500     3.2540     0.8210 ho         1 15Z       0.472000
     28 H8           5.8170     0.0830     0.2830 ha         1 15Z       0.138000
     29 H9           4.4670    -1.9290    -0.2640 ha         1 15Z       0.142000
     30 H10         -0.3030    -2.6710    -0.6270 ha         1 15Z       0.214000
@<TRIPOS>BOND
     1     1     2 ar  
     2     1     8 ar  
     3     1    21 1   
     4     2     3 1   
     5     2     4 ar  
     6     3    22 1   
     7     4     5 1   
     8     4     6 ar  
     9     5    23 1   
    10     6     7 ar  
    11     6    24 1   
    12     7     8 ar  
    13     7    25 1   
    14     8     9 1   
    15     9    10 1   
    16     9    20 2   
    17    10    11 1   
    18    11    12 ar  
    19    11    17 ar  
    20    12    13 ar  
    21    12    26 1   
    22    13    14 1   
    23    13    15 ar  
    24    14    27 1   
    25    15    16 ar  
    26    15    28 1   
    27    16    17 ar  
    28    16    29 1   
    29    17    18 1   
    30    18    19 2   
    31    18    20 1   
    32    20    30 1   
@<TRIPOS>SUBSTRUCTURE
     1 15Z         1 TEMP              0 ****  ****    0 ROOT
