@<TRIPOS>MOLECULE
15Z
   30    32     1     0     0
SMALL
bcc


@<TRIPOS>ATOM
      1 CAM         -2.1280     0.8080    -0.3070 ca         1 15Z      -0.137000
      2 CAL         -3.4850     1.0680    -0.3140 ca         1 15Z       0.034100
      3 OAT         -4.0210     2.2820    -0.5630 oh         1 15Z      -0.518100
      4 CAP         -4.4020     0.0380    -0.0540 ca         1 15Z       0.149100
      5 OAS         -5.7250     0.2560    -0.0530 oh         1 15Z      -0.487100
      6 CAO         -3.9250    -1.2370     0.2140 ca         1 15Z      -0.151000
      7 CAN         -2.5660    -1.4970     0.2180 ca         1 15Z      -0.084000
      8 CAK         -1.6500    -0.4820    -0.0490 ca         1 15Z      -0.078800
      9 CAJ         -0.2140    -0.7610    -0.0620 cc         1 15Z       0.210900
     10 OAG          0.5280     0.3490     0.0750 os         1 15Z      -0.224200
     11 CAF          1.8780     0.2850     0.0670 ca         1 15Z       0.199100
     12 CAA          2.5510     1.4930     0.1960 ca         1 15Z      -0.274000
     13 CAB          3.9380     1.4840     0.2030 ca         1 15Z       0.197100
     14 OAR          4.6640     2.6000     0.3280 oh         1 15Z      -0.483100
     15 CAC          4.6390     0.2730     0.0780 ca         1 15Z      -0.199000
     16 CAD          3.9460    -0.9050    -0.0490 ca         1 15Z      -0.007000
     17 CAE          2.5460    -0.9290    -0.0570 ca         1 15Z      -0.265600
     18 CAH          1.7820    -2.1680    -0.1970 c          1 15Z       0.600900
     19 OAQ          2.3170    -3.2670    -0.3080 o          1 15Z      -0.547100
     20 CAI          0.3500    -1.9820    -0.2060 cd         1 15Z      -0.333200
     21 H1          -1.4440     1.6210    -0.5190 ha         1 15Z       0.144000
     22 H2          -3.3360     2.9380    -0.7360 ho         1 15Z       0.439000
     23 H3          -5.9230     1.1780    -0.2570 ho         1 15Z       0.449000
     24 H4          -4.6310    -2.0290     0.4290 ha         1 15Z       0.156000
     25 H5          -2.2300    -2.4970     0.4550 ha         1 15Z       0.146000
     26 H6           1.9920     2.4160     0.2930 ha         1 15Z       0.149000
     27 H7           4.0960     3.3760     0.4080 ho         1 15Z       0.433000
     28 H8           5.7210     0.2800     0.0830 ha         1 15Z       0.156000
     29 H9           4.4870    -1.8370    -0.1480 ha         1 15Z       0.160000
     30 H10         -0.2820    -2.8470    -0.3470 ha         1 15Z       0.164000
@<TRIPOS>BOND
     1     1     2 ar  
     2     1     8 ar  
     3     1    21 1   
     4     2     3 1   
     5     2     4 ar  
     6     3    22 1   
     7     4     5 1   
     8     4     6 ar  
     9     5    23 1   
    10     6     7 ar  
    11     6    24 1   
    12     7     8 ar  
    13     7    25 1   
    14     8     9 1   
    15     9    10 1   
    16     9    20 2   
    17    10    11 1   
    18    11    12 ar  
    19    11    17 ar  
    20    12    13 ar  
    21    12    26 1   
    22    13    14 1   
    23    13    15 ar  
    24    14    27 1   
    25    15    16 ar  
    26    15    28 1   
    27    16    17 ar  
    28    16    29 1   
    29    17    18 1   
    30    18    19 2   
    31    18    20 1   
    32    20    30 1   
@<TRIPOS>SUBSTRUCTURE
     1 15Z         1 TEMP              0 ****  ****    0 ROOT
