@<TRIPOS>MOLECULE
160
   58    59     1     0     0
SMALL
abcg2


@<TRIPOS>ATOM
      1 O35          3.7750    -2.3640    -2.3210 o          1 160      -0.575100
      2 C18          4.0770    -1.9950    -1.1970 c          1 160       0.633700
      3 C19          5.2780    -1.1430    -0.9970 cc         1 160      -0.260600
      4 S20          5.5150    -0.1360     0.3730 ss         1 160       0.362000
      5 C21          7.0180     0.3940    -0.2460 cc         1 160      -0.439500
      6 S24          7.9650     1.5730     0.6450 sy         1 160       1.106500
      7 O33          9.3720     1.3180     0.3650 o          1 160      -0.526000
      8 O34          7.4790     1.5400     2.0200 o          1 160      -0.526000
      9 C25          7.5130     3.1290    -0.0810 c3         1 160      -0.337100
     10 C22          7.3300    -0.1710    -1.4480 cd         1 160      -0.006000
     11 C23          6.3170    -1.0520    -1.8830 cd         1 160      -0.098000
     12 N17          3.3840    -2.3200    -0.0950 ns         1 160      -0.505900
     13 C16          2.1700    -3.1050    -0.1430 c3         1 160       0.108000
     14 C15          0.9540    -2.2520    -0.4720 c3         1 160       0.011600
     15 S14         -0.5800    -3.2250    -0.4980 ss         1 160      -0.173000
     16 S13         -0.8590    -3.6780     1.4800 ss         1 160      -0.291000
     17 C12         -1.7470    -2.2030     2.1050 c3         1 160       0.121900
     18 C8          -3.0720    -2.0130     1.4450 ca         1 160      -0.124300
     19 C9          -4.1720    -2.7780     1.8260 ca         1 160      -0.045000
     20 C10         -5.3960    -2.6270     1.1940 ca         1 160      -0.131000
     21 C11         -5.5480    -1.7020     0.1730 ca         1 160       0.006000
     22 C7          -3.2170    -1.0910     0.4140 ca         1 160       0.002000
     23 C6          -4.4510    -0.9410    -0.2020 ca         1 160      -0.298500
     24 S5          -4.6660     0.3290    -1.4210 sy         1 160       1.138600
     25 O27         -3.3480     0.7050    -1.9030 o          1 160      -0.535000
     26 O28         -5.6890    -0.1050    -2.3590 o          1 160      -0.535000
     27 N4          -5.2950     1.6370    -0.6450 n7         1 160      -0.802300
     28 C3          -4.5320     2.2970     0.4020 c3         1 160       0.118500
     29 C2          -4.6720     1.6130     1.7560 c          1 160       0.536100
     30 O26         -5.6690     0.9890     2.0380 o          1 160      -0.553100
     31 C1          -3.5230     1.7970     2.7020 c3         1 160      -0.196100
     32 C29         -5.0240     3.7380     0.5350 c3         1 160      -0.207400
     33 C30         -4.7160     4.5930    -0.7140 c          1 160       0.729000
     34 O31         -5.5840     5.4230    -1.0400 o          1 160      -0.720500
     35 O32         -3.6140     4.4030    -1.2580 o          1 160      -0.720500
     36 H251         6.4450     3.2880     0.0490 h1         1 160       0.106367
     37 H252         8.0740     3.9050     0.4410 h1         1 160       0.106367
     38 H253         7.7720     3.1250    -1.1360 h1         1 160       0.106367
     39 H22          8.2370     0.0350    -1.9970 ha         1 160       0.151000
     40 H23          6.3580    -1.6110    -2.8060 ha         1 160       0.158000
     41 H17          3.7310    -2.0680     0.8170 hn         1 160       0.316500
     42 H161         2.0450    -3.5670     0.8350 h1         1 160       0.067200
     43 H162         2.2730    -3.9060    -0.8750 h1         1 160       0.067200
     44 H151         1.0310    -1.8330    -1.4780 h1         1 160       0.089700
     45 H152         0.8500    -1.4210     0.2270 h1         1 160       0.089700
     46 H121        -1.1050    -1.3300     1.9920 h1         1 160       0.075200
     47 H122        -1.8570    -2.3970     3.1740 h1         1 160       0.075200
     48 H9          -4.0680    -3.5020     2.6250 ha         1 160       0.108000
     49 H10         -6.2400    -3.2310     1.5000 ha         1 160       0.112000
     50 H11         -6.5070    -1.5830    -0.3120 ha         1 160       0.134000
     51 H7          -2.3670    -0.4990     0.1010 ha         1 160       0.138000
     52 H4          -6.2780     1.5130    -0.4240 hn         1 160       0.484000
     53 H3          -3.4840     2.3390     0.1000 h1         1 160       0.118700
     54 H11A        -3.7840     1.5100     3.7170 hc         1 160       0.056367
     55 H12         -2.6900     1.1740     2.3630 hc         1 160       0.056367
     56 H13         -3.1580     2.8250     2.6930 hc         1 160       0.056367
     57 H291        -6.0940     3.7440     0.7590 hc         1 160       0.029700
     58 H292        -4.5270     4.2070     1.3920 hc         1 160       0.029700
@<TRIPOS>BOND
     1     1     2 2   
     2     2     3 1   
     3     2    12 1   
     4     3     4 1   
     5     3    11 2   
     6     4     5 1   
     7     5     6 1   
     8     5    10 2   
     9     6     7 2   
    10     6     8 2   
    11     6     9 1   
    12     9    36 1   
    13     9    37 1   
    14     9    38 1   
    15    10    11 1   
    16    10    39 1   
    17    11    40 1   
    18    12    13 1   
    19    12    41 1   
    20    13    14 1   
    21    13    42 1   
    22    13    43 1   
    23    14    15 1   
    24    14    44 1   
    25    14    45 1   
    26    15    16 1   
    27    16    17 1   
    28    17    18 1   
    29    17    46 1   
    30    17    47 1   
    31    18    19 ar  
    32    18    22 ar  
    33    19    20 ar  
    34    19    48 1   
    35    20    21 ar  
    36    20    49 1   
    37    21    23 ar  
    38    21    50 1   
    39    22    23 ar  
    40    22    51 1   
    41    23    24 1   
    42    24    25 2   
    43    24    26 2   
    44    24    27 1   
    45    27    28 1   
    46    27    52 1   
    47    28    29 1   
    48    28    32 1   
    49    28    53 1   
    50    29    30 2   
    51    29    31 1   
    52    31    54 1   
    53    31    55 1   
    54    31    56 1   
    55    32    33 1   
    56    32    57 1   
    57    32    58 1   
    58    33    34 1   
    59    33    35 1   
@<TRIPOS>SUBSTRUCTURE
     1 160         1 TEMP              0 ****  ****    0 ROOT
