@<TRIPOS>MOLECULE
160
   58    59     1     0     0
SMALL
No Charge or Current Charge


@<TRIPOS>ATOM
      1 O35          3.8500    -2.5550    -2.3010 o          1 160      -0.575100
      2 C18          4.3060    -1.9910    -1.3180 c          1 160       0.633700
      3 C19          5.5430    -1.1890    -1.3410 cc         1 160      -0.260600
      4 S20          6.2250    -0.3680     0.0600 ss         1 160       0.362000
      5 C21          7.5360     0.2560    -0.9220 cc         1 160      -0.439500
      6 S24          8.8150     1.2610    -0.2050 sy         1 160       1.106500
      7 O33          9.8060     1.5590    -1.2460 o          1 160      -0.526000
      8 O34          9.1970     0.6560     1.0760 o          1 160      -0.526000
      9 C25          7.9420     2.7750     0.1780 c3         1 160      -0.337100
     10 C22          7.4520    -0.1750    -2.2240 cd         1 160      -0.006000
     11 C23          6.3150    -0.9910    -2.4640 cd         1 160      -0.098000
     12 N17          3.6930    -2.0600    -0.0870 ns         1 160      -0.505900
     13 C16          2.4450    -2.7850     0.1830 c3         1 160       0.108000
     14 C15          1.2090    -2.0660    -0.3940 c3         1 160       0.011600
     15 S14         -0.3370    -3.0120    -0.0370 ss         1 160      -0.173000
     16 S13         -0.5000    -2.9560     2.0520 ss         1 160      -0.291000
     17 C12         -1.4520    -1.4070     2.3880 c3         1 160       0.121900
     18 C8          -2.8290    -1.4610     1.7400 ca         1 160      -0.124300
     19 C9          -3.8580    -2.2160     2.3340 ca         1 160      -0.045000
     20 C10         -5.1280    -2.2740     1.7360 ca         1 160      -0.131000
     21 C11         -5.3820    -1.5740     0.5450 ca         1 160       0.006000
     22 C7          -3.0810    -0.7620     0.5440 ca         1 160       0.002000
     23 C6          -4.3600    -0.8050    -0.0490 ca         1 160      -0.298500
     24 S5          -4.6670     0.0930    -1.5800 sy         1 160       1.138600
     25 O27         -3.4530     0.0800    -2.4010 o          1 160      -0.535000
     26 O28         -5.9770    -0.2870    -2.1100 o          1 160      -0.535000
     27 N4          -4.8400     1.6810    -1.0680 n7         1 160      -0.802300
     28 C3          -5.0520     2.0300     0.3750 c3         1 160       0.118500
     29 C2          -6.3940     1.4890     0.9770 c          1 160       0.536100
     30 O26         -7.4050     1.3330     0.3010 o          1 160      -0.553100
     31 C1          -6.3860     1.1460     2.4700 c3         1 160      -0.196100
     32 C29         -4.9550     3.5700     0.5420 c3         1 160      -0.207400
     33 C30         -3.4870     4.0170     0.5610 c          1 160       0.729000
     34 O31         -2.9840     4.4220    -0.4760 o          1 160      -0.720500
     35 O32         -2.8850     3.9390     1.6210 o          1 160      -0.720500
     36 H251         7.1450     2.5420     0.8910 h1         1 160       0.106367
     37 H252         8.6590     3.4780     0.6140 h1         1 160       0.106367
     38 H253         7.5270     3.1710    -0.7540 h1         1 160       0.106367
     39 H22          8.1740     0.0820    -2.9960 ha         1 160       0.151000
     40 H23          6.0830    -1.4140    -3.4370 ha         1 160       0.158000
     41 H17          4.1380    -1.5720     0.6790 hn         1 160       0.316500
     42 H161         2.3330    -2.8930     1.2690 h1         1 160       0.067200
     43 H162         2.5170    -3.7930    -0.2490 h1         1 160       0.067200
     44 H151         1.3140    -1.9660    -1.4810 h1         1 160       0.089700
     45 H152         1.1250    -1.0630     0.0410 h1         1 160       0.089700
     46 H121        -0.8850    -0.5490     2.0050 h1         1 160       0.075200
     47 H122        -1.5590    -1.2850     3.4730 h1         1 160       0.075200
     48 H9          -3.6720    -2.7630     3.2550 ha         1 160       0.108000
     49 H10         -5.9170    -2.8630     2.1960 ha         1 160       0.112000
     50 H11         -6.3720    -1.6300     0.0950 ha         1 160       0.134000
     51 H7          -2.2840    -0.1820     0.0790 ha         1 160       0.138000
     52 H4          -5.6600     1.9590    -1.6060 hn         1 160       0.484000
     53 H3          -4.2550     1.5970     0.9970 h1         1 160       0.118700
     54 H11A        -7.3260     0.6940     2.8060 hc         1 160       0.056367
     55 H12         -5.5230     0.5080     2.6940 hc         1 160       0.056367
     56 H13         -6.1540     2.0510     3.0410 hc         1 160       0.056367
     57 H291        -5.5050     4.0330    -0.2870 hc         1 160       0.029700
     58 H292        -5.3950     3.7830     1.5240 hc         1 160       0.029700
@<TRIPOS>BOND
     1     1     2 2   
     2     2     3 1   
     3     2    12 1   
     4     3     4 1   
     5     3    11 2   
     6     4     5 1   
     7     5     6 1   
     8     5    10 2   
     9     6     7 2   
    10     6     8 2   
    11     6     9 1   
    12     9    36 1   
    13     9    37 1   
    14     9    38 1   
    15    10    11 1   
    16    10    39 1   
    17    11    40 1   
    18    12    13 1   
    19    12    41 1   
    20    13    14 1   
    21    13    42 1   
    22    13    43 1   
    23    14    15 1   
    24    14    44 1   
    25    14    45 1   
    26    15    16 1   
    27    16    17 1   
    28    17    18 1   
    29    17    46 1   
    30    17    47 1   
    31    18    19 ar  
    32    18    22 ar  
    33    19    20 ar  
    34    19    48 1   
    35    20    21 ar  
    36    20    49 1   
    37    21    23 ar  
    38    21    50 1   
    39    22    23 ar  
    40    22    51 1   
    41    23    24 1   
    42    24    25 2   
    43    24    26 2   
    44    24    27 1   
    45    27    28 1   
    46    27    52 1   
    47    28    29 1   
    48    28    32 1   
    49    28    53 1   
    50    29    30 2   
    51    29    31 1   
    52    31    54 1   
    53    31    55 1   
    54    31    56 1   
    55    32    33 1   
    56    32    57 1   
    57    32    58 1   
    58    33    34 1   
    59    33    35 1   
@<TRIPOS>SUBSTRUCTURE
     1 160         1 TEMP              0 ****  ****    0 ROOT
