@<TRIPOS>MOLECULE
161
   50    51     1     0     0
SMALL
No Charge or Current Charge


@<TRIPOS>ATOM
      1 C1           7.4030     0.8180     2.9260 c3         1 161      -0.199100
      2 C2           6.2670     1.1870     1.9690 c          1 161       0.580100
      3 O24          5.4060     2.0000     2.2950 o          1 161      -0.535100
      4 C3           6.2710     0.4690     0.5850 c3         1 161       0.028700
      5 C25          7.1210     1.2320    -0.4660 c3         1 161      -0.225400
      6 C26          7.1090     0.5050    -1.8160 c          1 161       0.721000
      7 O28          7.9570    -0.3490    -2.0160 o          1 161      -0.728000
      8 O27          6.2190     0.7820    -2.6060 o          1 161      -0.728000
      9 N4           4.8950     0.2350     0.1030 ns         1 161      -0.468900
     10 C5           4.0100    -0.6590     0.6630 c          1 161       0.604700
     11 O29          4.3200    -1.3090     1.6550 o          1 161      -0.667100
     12 C6           2.6540    -0.7960    -0.0030 ca         1 161      -0.132600
     13 C7           1.7000    -1.6840     0.5450 ca         1 161      -0.077000
     14 C8           0.4330    -1.8360    -0.0440 ca         1 161      -0.114500
     15 C11          2.3000    -0.0620    -1.1630 ca         1 161      -0.077000
     16 C10          1.0310    -0.2180    -1.7480 ca         1 161      -0.114500
     17 C9           0.0900    -1.1050    -1.1960 ca         1 161      -0.083300
     18 C12         -1.2820    -1.2700    -1.8380 c3         1 161       0.243100
     19 N13         -2.1670    -0.1760    -1.4200 n7         1 161      -0.863300
     20 S14         -3.7350    -0.1940    -1.9680 sy         1 161       1.162600
     21 O30         -4.1440    -1.5980    -2.0480 o          1 161      -0.562000
     22 O31         -3.7760     0.7200    -3.1120 o          1 161      -0.562000
     23 C15         -4.5130     0.5750    -0.5520 ca         1 161      -0.414500
     24 C16         -5.1450    -0.2210     0.4260 ca         1 161       0.067000
     25 C20         -4.4880     1.9730    -0.4170 ca         1 161       0.015000
     26 C19         -5.0960     2.5690     0.6950 ca         1 161      -0.238000
     27 C18         -5.7240     1.7820     1.6660 ca         1 161       0.270100
     28 O23         -6.3020     2.3980     2.7280 oh         1 161      -0.628100
     29 C17         -5.7590     0.3770     1.5490 ca         1 161      -0.309600
     30 C21         -6.4310    -0.4890     2.5850 c          1 161       0.727600
     31 O32         -6.4250    -1.6990     2.4290 o          1 161      -0.686500
     32 O22         -6.9550     0.0650     3.5430 o          1 161      -0.686500
     33 H11A         7.3920    -0.2670     3.0840 hc         1 161       0.050700
     34 H12          8.3630     0.9670     2.4190 hc         1 161       0.050700
     35 H13A         7.3540     1.3640     3.8750 hc         1 161       0.050700
     36 H3           6.7360    -0.5140     0.7370 h1         1 161       0.048700
     37 H251         6.6590     2.2230    -0.5660 hc         1 161       0.037700
     38 H252         8.1400     1.2620    -0.0640 hc         1 161       0.037700
     39 H4           4.5890     0.7210    -0.7300 hn         1 161       0.386500
     40 H7           1.9390    -2.2620     1.4350 ha         1 161       0.135500
     41 H8          -0.2830    -2.5260     0.3980 ha         1 161       0.118000
     42 H11          2.9920     0.6350    -1.6280 ha         1 161       0.135500
     43 H10          0.7760     0.3570    -2.6360 ha         1 161       0.118000
     44 H121        -1.1650    -1.2760    -2.9310 h1         1 161       0.062700
     45 H122        -1.6930    -2.2480    -1.5500 h1         1 161       0.062700
     46 H13         -2.3040    -0.2050    -0.4140 hn         1 161       0.473000
     47 H16         -5.1580    -1.3060     0.3120 ha         1 161       0.145000
     48 H20         -3.9990     2.5970    -1.1640 ha         1 161       0.107000
     49 H19         -5.0780     3.6500     0.8040 ha         1 161       0.106000
     50 H23         -6.6740     1.6400     3.2640 ho         1 161       0.557000
@<TRIPOS>BOND
     1     1     2 1   
     2     1    33 1   
     3     1    34 1   
     4     1    35 1   
     5     2     3 2   
     6     2     4 1   
     7     4     5 1   
     8     4     9 1   
     9     4    36 1   
    10     5     6 1   
    11     5    37 1   
    12     5    38 1   
    13     6     7 1   
    14     6     8 1   
    15     9    10 1   
    16     9    39 1   
    17    10    11 2   
    18    10    12 1   
    19    12    13 ar  
    20    12    15 ar  
    21    13    14 ar  
    22    13    40 1   
    23    14    17 ar  
    24    14    41 1   
    25    15    16 ar  
    26    15    42 1   
    27    16    17 ar  
    28    16    43 1   
    29    17    18 1   
    30    18    19 1   
    31    18    44 1   
    32    18    45 1   
    33    19    20 1   
    34    19    46 1   
    35    20    21 2   
    36    20    22 2   
    37    20    23 1   
    38    23    24 ar  
    39    23    25 ar  
    40    24    29 ar  
    41    24    47 1   
    42    25    26 ar  
    43    25    48 1   
    44    26    27 ar  
    45    26    49 1   
    46    27    28 1   
    47    27    29 ar  
    48    28    50 1   
    49    29    30 1   
    50    30    31 1   
    51    30    32 1   
@<TRIPOS>SUBSTRUCTURE
     1 161         1 TEMP              0 ****  ****    0 ROOT
