@<TRIPOS>MOLECULE
161
   50    51     1     0     0
SMALL
bcc


@<TRIPOS>ATOM
      1 C1           7.9910     0.0170     2.3230 c3         1 161      -0.199100
      2 C2           6.8910     0.7710     1.6410 c          1 161       0.580100
      3 O24          6.4120     1.7890     2.0800 o          1 161      -0.535100
      4 C3           6.4470     0.2070     0.2930 c3         1 161       0.028700
      5 C25          7.1630     1.0030    -0.8100 c3         1 161      -0.225400
      6 C26          6.7410     0.6100    -2.2420 c          1 161       0.931600
      7 O28          7.6310     0.2850    -3.0390 o          1 161      -0.833300
      8 O27          5.5110     0.6840    -2.4910 o          1 161      -0.833300
      9 N4           5.0210     0.3060     0.1320 ns         1 161      -0.535900
     10 C5           4.1940    -0.2720     1.0090 c          1 161       0.671700
     11 O29          4.5920    -0.7510     2.0670 o          1 161      -0.667100
     12 C6           2.7450    -0.2890     0.6480 ca         1 161      -0.132600
     13 C7           1.8040    -0.3260     1.6730 ca         1 161      -0.095000
     14 C8           0.4500    -0.3450     1.3830 ca         1 161      -0.132500
     15 C11          2.3010    -0.3030    -0.6730 ca         1 161      -0.095000
     16 C10          0.9470    -0.3450    -0.9610 ca         1 161      -0.132500
     17 C9           0.0050    -0.3610     0.0650 ca         1 161      -0.083300
     18 C12         -1.4690    -0.4340    -0.2280 c3         1 161       0.243100
     19 N13         -1.8090     0.4230    -1.3550 n7         1 161      -0.808100
     20 S14         -3.2610     0.2010    -2.1140 sy         1 161       1.304200
     21 O30         -3.3190    -1.2020    -2.4920 o          1 161      -0.632800
     22 O31         -3.3200     1.2320    -3.1380 o          1 161      -0.632800
     23 C15         -4.5240     0.5090    -0.9300 ca         1 161      -0.414500
     24 C16         -5.0310    -0.5330    -0.1670 ca         1 161       0.049000
     25 C20         -4.9710     1.8160    -0.7280 ca         1 161      -0.003000
     26 C19         -5.9210     2.0740     0.2340 ca         1 161      -0.256000
     27 C18         -6.4390     1.0320     1.0180 ca         1 161       0.270100
     28 O23         -7.3430     1.2910     1.9410 oh         1 161      -0.589100
     29 C17         -5.9840    -0.2880     0.8080 ca         1 161      -0.309600
     30 C21         -6.5420    -1.4150     1.6420 c          1 161       0.938200
     31 O32         -6.1520    -2.5640     1.4440 o          1 161      -0.791800
     32 O22         -7.4010    -1.0640     2.5120 o          1 161      -0.791800
     33 H11A         7.6190    -0.9690     2.6090 hc         1 161       0.050700
     34 H12          8.8260    -0.1510     1.6390 hc         1 161       0.050700
     35 H13A         8.3500     0.5380     3.2080 hc         1 161       0.050700
     36 H3           6.7650    -0.8410     0.2320 h1         1 161       0.048700
     37 H251         6.9410     2.0660    -0.6700 hc         1 161       0.037700
     38 H252         8.2390     0.8770    -0.6870 hc         1 161       0.037700
     39 H4           4.7300     0.6060    -0.7980 hn         1 161       0.386500
     40 H7           2.1310    -0.3230     2.7050 ha         1 161       0.153500
     41 H8          -0.2690    -0.3480     2.1930 ha         1 161       0.136000
     42 H11          3.0040    -0.3100    -1.4970 ha         1 161       0.153500
     43 H10          0.6210    -0.3660    -1.9930 ha         1 161       0.136000
     44 H121        -1.7320    -1.4610    -0.4860 h1         1 161       0.062700
     45 H122        -2.0370    -0.1740     0.6720 h1         1 161       0.062700
     46 H13         -1.6260     1.4070    -1.1810 hn         1 161       0.417800
     47 H16         -4.6960    -1.5500    -0.3210 ha         1 161       0.163000
     48 H20         -4.5870     2.6320    -1.3250 ha         1 161       0.125000
     49 H19         -6.2770     3.0850     0.3900 ha         1 161       0.124000
     50 H23         -7.5340     0.3550     2.3570 ho         1 161       0.518000
@<TRIPOS>BOND
     1     1     2 1   
     2     1    33 1   
     3     1    34 1   
     4     1    35 1   
     5     2     3 2   
     6     2     4 1   
     7     4     5 1   
     8     4     9 1   
     9     4    36 1   
    10     5     6 1   
    11     5    37 1   
    12     5    38 1   
    13     6     7 1   
    14     6     8 1   
    15     9    10 1   
    16     9    39 1   
    17    10    11 2   
    18    10    12 1   
    19    12    13 ar  
    20    12    15 ar  
    21    13    14 ar  
    22    13    40 1   
    23    14    17 ar  
    24    14    41 1   
    25    15    16 ar  
    26    15    42 1   
    27    16    17 ar  
    28    16    43 1   
    29    17    18 1   
    30    18    19 1   
    31    18    44 1   
    32    18    45 1   
    33    19    20 1   
    34    19    46 1   
    35    20    21 2   
    36    20    22 2   
    37    20    23 1   
    38    23    24 ar  
    39    23    25 ar  
    40    24    29 ar  
    41    24    47 1   
    42    25    26 ar  
    43    25    48 1   
    44    26    27 ar  
    45    26    49 1   
    46    27    28 1   
    47    27    29 ar  
    48    28    50 1   
    49    29    30 1   
    50    30    31 1   
    51    30    32 1   
@<TRIPOS>SUBSTRUCTURE
     1 161         1 TEMP              0 ****  ****    0 ROOT
