@<TRIPOS>MOLECULE
162
   64    66     1     0     0
SMALL
abcg2


@<TRIPOS>ATOM
      1 C12         -1.5730    -0.0630     0.8900 c          1 162       0.514900
      2 O1          -0.9980    -1.0890     1.1370 o          1 162      -0.476100
      3 C13         -3.0950     0.0860     0.8730 c3         1 162       0.143500
      4 C14         -3.5790     0.5560    -0.5070 c3         1 162      -0.065400
      5 C15         -5.0810     0.8260    -0.5730 c6         1 162      -0.056700
      6 C16         -5.5110     1.9520     0.3680 c6         1 162      -0.070400
      7 C17         -7.0050     2.2440     0.2590 c6         1 162      -0.072900
      8 C18         -7.4040     2.5690    -1.1760 c6         1 162      -0.072400
      9 C19         -6.9840     1.4500    -2.1240 c6         1 162      -0.072900
     10 C20         -5.4920     1.1570    -2.0080 c6         1 162      -0.070400
     11 N5          -3.7840    -1.0960     1.3060 n7         1 162      -0.864400
     12 C21         -3.7710    -2.2450     0.4220 c3         1 162       0.008800
     13 C22         -3.9260    -3.5710     1.1910 c          1 162       0.718000
     14 O2          -4.1280    -4.5790     0.4870 o          1 162      -0.732500
     15 O3          -3.8170    -3.5340     2.4330 o          1 162      -0.732500
     16 O            0.6660    -0.7310    -1.2340 o          1 162      -0.583100
     17 C8           0.5100     1.1080     0.2560 cc         1 162      -0.209600
     18 C9           0.9590     2.3960     0.3250 cd         1 162      -0.161000
     19 C10         -0.1260     3.2090     0.7560 cd         1 162      -0.195000
     20 C11         -1.2000     2.3910     0.9280 cc         1 162      -0.157000
     21 N4          -0.8230     1.1010     0.6190 n          1 162       0.054200
     22 N            7.9180     1.8030    -1.7810 n2         1 162      -0.844100
     23 N1           8.6450     1.5540     0.3810 nv         1 162      -1.037200
     24 C1           6.7340     0.2650    -0.3290 cc         1 162      -0.306900
     25 N2           6.8670    -0.8260     0.4910 na         1 162       0.043000
     26 C2           8.0670    -1.3010     1.1520 c3         1 162       0.060900
     27 C3           5.6840    -1.4920     0.5280 cc         1 162      -0.165000
     28 C4           5.4420     0.2790    -0.8090 cd         1 162      -0.128000
     29 C5           4.7700    -0.8370    -0.2640 cd         1 162      -0.178300
     30 C6           3.3490    -1.2290    -0.4850 c3         1 162       0.181300
     31 N3           2.4520    -0.2300     0.0660 ns         1 162      -0.502900
     32 H13         -3.3230     0.8720     1.6030 h1         1 162       0.049700
     33 H141        -3.0470     1.4660    -0.7980 hc         1 162       0.047700
     34 H142        -3.3140    -0.1960    -1.2570 hc         1 162       0.047700
     35 H15         -5.6110    -0.0850    -0.2720 hc         1 162       0.085700
     36 H161        -5.2610     1.7030     1.4030 hc         1 162       0.034700
     37 H162        -4.9470     2.8590     0.1180 hc         1 162       0.034700
     38 H171        -7.5700     1.3710     0.6030 hc         1 162       0.035450
     39 H172        -7.2740     3.0680     0.9250 hc         1 162       0.035450
     40 H181        -8.4810     2.7400    -1.2430 hc         1 162       0.027200
     41 H182        -6.9200     3.5030    -1.4830 hc         1 162       0.027200
     42 H191        -7.5510     0.5440    -1.8830 hc         1 162       0.035450
     43 H192        -7.2370     1.7090    -3.1550 hc         1 162       0.035450
     44 H201        -4.9220     2.0290    -2.3520 hc         1 162       0.034700
     45 H202        -5.2180     0.3290    -2.6700 hc         1 162       0.034700
     46 H5          -3.4730    -1.3960     2.2210 hn         1 162       0.463000
     47 H211        -4.5860    -2.1770    -0.3050 h1         1 162       0.027700
     48 H212        -2.8500    -2.3290    -0.1720 h1         1 162       0.027700
     49 H9           1.9440     2.7330     0.0440 ha         1 162       0.124000
     50 H10         -0.1120     4.2740     0.9210 ha         1 162       0.125000
     51 H11         -2.1850     2.6240     1.2940 h4         1 162       0.151000
     52 H            7.2770     1.3890    -2.4480 hn         1 162       0.396400
     53 H11A         9.2670     2.3280     0.2060 hn         1 162       0.463500
     54 H12          8.2950     1.5250     1.3240 hn         1 162       0.463500
     55 H21          8.3100    -0.7050     2.0300 h1         1 162       0.052033
     56 H22          7.8990    -2.3250     1.4730 h1         1 162       0.052033
     57 H23          8.9150    -1.2890     0.4730 h1         1 162       0.052033
     58 H3           5.5770    -2.3970     1.1060 h4         1 162       0.151000
     59 H4           5.0220     1.0290    -1.4610 ha         1 162       0.141000
     60 H61          3.1390    -1.3250    -1.5520 h1         1 162       0.059700
     61 H62          3.1560    -2.2090    -0.0380 h1         1 162       0.059700
     62 HN3          2.7660     0.2850     0.8720 hn         1 162       0.318500
     63 C7           1.1930    -0.0560    -0.3610 c          1 162       0.647700
     64 C            7.7870     1.2480    -0.6360 ce         1 162       0.685800
@<TRIPOS>BOND
     1     1     2 2   
     2     1     3 1   
     3     1    21 1   
     4     3     4 1   
     5     3    11 1   
     6     3    32 1   
     7     4     5 1   
     8     4    33 1   
     9     4    34 1   
    10     5     6 1   
    11     5    10 1   
    12     5    35 1   
    13     6     7 1   
    14     6    36 1   
    15     6    37 1   
    16     7     8 1   
    17     7    38 1   
    18     7    39 1   
    19     8     9 1   
    20     8    40 1   
    21     8    41 1   
    22     9    10 1   
    23     9    42 1   
    24     9    43 1   
    25    10    44 1   
    26    10    45 1   
    27    11    12 1   
    28    11    46 1   
    29    12    13 1   
    30    12    47 1   
    31    12    48 1   
    32    13    14 1   
    33    13    15 1   
    34    16    63 2   
    35    17    18 2   
    36    17    21 1   
    37    17    63 1   
    38    18    19 1   
    39    18    49 1   
    40    19    20 2   
    41    19    50 1   
    42    20    21 1   
    43    20    51 1   
    44    22    52 1   
    45    22    64 2   
    46    23    53 1   
    47    23    54 1   
    48    23    64 1   
    49    24    25 1   
    50    24    28 2   
    51    24    64 1   
    52    25    26 1   
    53    25    27 1   
    54    26    55 1   
    55    26    56 1   
    56    26    57 1   
    57    27    29 2   
    58    27    58 1   
    59    28    29 1   
    60    28    59 1   
    61    29    30 1   
    62    30    31 1   
    63    30    60 1   
    64    30    61 1   
    65    31    62 1   
    66    31    63 1   
@<TRIPOS>SUBSTRUCTURE
     1 162         1 TEMP              0 ****  ****    0 ROOT
