@<TRIPOS>MOLECULE
162
   64    66     1     0     0
SMALL
No Charge or Current Charge


@<TRIPOS>ATOM
      1 C12         -1.8950    -0.4730     1.7840 c          1 162       0.514900
      2 O1          -1.5470    -1.5740     2.2090 o          1 162      -0.476100
      3 C13         -3.3660    -0.2080     1.2770 c3         1 162       0.143500
      4 C14         -3.3940     0.4670    -0.1340 c3         1 162      -0.065400
      5 C15         -4.7940     0.9070    -0.6730 c6         1 162      -0.056700
      6 C16         -5.4630     1.9910     0.2250 c6         1 162      -0.070400
      7 C17         -6.8360     2.4340    -0.3410 c6         1 162      -0.072900
      8 C18         -6.7100     2.9340    -1.7990 c6         1 162      -0.072400
      9 C19         -6.0550     1.8600    -2.6990 c6         1 162      -0.072900
     10 C20         -4.6800     1.4220    -2.1370 c6         1 162      -0.070400
     11 N5          -4.2740    -1.4130     1.3260 n7         1 162      -0.864400
     12 C21         -4.0220    -2.5200     0.3340 c3         1 162       0.008800
     13 C22         -4.8800    -3.8220     0.5470 c          1 162       0.718000
     14 O2          -5.5570    -4.2360    -0.3860 o          1 162      -0.732500
     15 O3          -4.8600    -4.3570     1.6490 o          1 162      -0.732500
     16 O            0.5310    -1.5900     0.2900 o          1 162      -0.583100
     17 C8           0.3690     0.5830     1.3250 cc         1 162      -0.209600
     18 C9           0.9390     1.8180     1.5850 cd         1 162      -0.161000
     19 C10         -0.0980     2.6580     2.0970 cd         1 162      -0.195000
     20 C11         -1.2410     1.9000     2.1360 cc         1 162      -0.157000
     21 N4          -0.9800     0.6110     1.6940 n          1 162       0.054200
     22 N            7.4210     1.1440    -2.9770 n2         1 162      -0.844100
     23 N1           8.4320     1.9170    -1.1470 nv         1 162      -1.037200
     24 C1           6.5620     0.3870    -0.9030 cc         1 162      -0.306900
     25 N2           6.8160    -0.2330     0.3340 na         1 162       0.043000
     26 C2           8.1000    -0.2440     1.0550 c3         1 162       0.060900
     27 C3           5.6720    -0.8900     0.7890 cc         1 162      -0.165000
     28 C4           5.2750     0.0240    -1.2190 cd         1 162      -0.128000
     29 C5           4.7160    -0.7430    -0.1780 cd         1 162      -0.178300
     30 C6           3.3170    -1.2940    -0.1510 c3         1 162       0.181300
     31 N3           2.4100    -0.3470     0.4810 ns         1 162      -0.502900
     32 H13         -3.7600     0.5310     1.9860 h1         1 162       0.049700
     33 H141        -2.7490     1.3530    -0.1180 hc         1 162       0.047700
     34 H142        -2.9210    -0.2150    -0.8520 hc         1 162       0.047700
     35 H15         -5.4340     0.0140    -0.6760 hc         1 162       0.085700
     36 H161        -5.6090     1.6060     1.2430 hc         1 162       0.034700
     37 H162        -4.8020     2.8640     0.3120 hc         1 162       0.034700
     38 H171        -7.5420     1.5920    -0.2980 hc         1 162       0.035450
     39 H172        -7.2590     3.2270     0.2900 hc         1 162       0.035450
     40 H181        -7.7020     3.1960    -2.1910 hc         1 162       0.027200
     41 H182        -6.1110     3.8550    -1.8240 hc         1 162       0.027200
     42 H191        -6.7180     0.9880    -2.7780 hc         1 162       0.035450
     43 H192        -5.9330     2.2520    -3.7180 hc         1 162       0.035450
     44 H201        -3.9800     2.2680    -2.1820 hc         1 162       0.034700
     45 H202        -4.2600     0.6350    -2.7790 hc         1 162       0.034700
     46 H5          -4.2030    -1.8270     2.2690 hn         1 162       0.463000
     47 H211        -4.2120    -2.1640    -0.6870 h1         1 162       0.027700
     48 H212        -2.9700    -2.8330     0.3720 h1         1 162       0.027700
     49 H9           1.9650     2.1240     1.4030 ha         1 162       0.124000
     50 H10         -0.0040     3.6990     2.3950 ha         1 162       0.125000
     51 H11         -2.2430     2.1350     2.4750 h4         1 162       0.151000
     52 H            6.6670     0.4910    -3.2240 hn         1 162       0.396400
     53 H11A         8.8150     2.6020    -1.7860 hn         1 162       0.463500
     54 H12          8.1820     2.2640    -0.2300 hn         1 162       0.463500
     55 H21          8.2590     0.7260     1.5400 h1         1 162       0.052033
     56 H22          8.0880    -1.0290     1.8210 h1         1 162       0.052033
     57 H23          8.9180    -0.4460     0.3530 h1         1 162       0.052033
     58 H3           5.6400    -1.4150     1.7360 h4         1 162       0.151000
     59 H4           4.7510     0.3010    -2.1300 ha         1 162       0.141000
     60 H61          2.9750    -1.4930    -1.1760 h1         1 162       0.059700
     61 H62          3.3010    -2.2390     0.4100 h1         1 162       0.059700
     62 HN3          2.7880     0.5280     0.8160 hn         1 162       0.318500
     63 C7           1.0670    -0.5600     0.6680 c          1 162       0.647700
     64 C            7.5210     1.1200    -1.7180 ce         1 162       0.685800
@<TRIPOS>BOND
     1     1     2 2   
     2     1     3 1   
     3     1    21 1   
     4     3     4 1   
     5     3    11 1   
     6     3    32 1   
     7     4     5 1   
     8     4    33 1   
     9     4    34 1   
    10     5     6 1   
    11     5    10 1   
    12     5    35 1   
    13     6     7 1   
    14     6    36 1   
    15     6    37 1   
    16     7     8 1   
    17     7    38 1   
    18     7    39 1   
    19     8     9 1   
    20     8    40 1   
    21     8    41 1   
    22     9    10 1   
    23     9    42 1   
    24     9    43 1   
    25    10    44 1   
    26    10    45 1   
    27    11    12 1   
    28    11    46 1   
    29    12    13 1   
    30    12    47 1   
    31    12    48 1   
    32    13    14 1   
    33    13    15 1   
    34    16    63 2   
    35    17    18 2   
    36    17    21 1   
    37    17    63 1   
    38    18    19 1   
    39    18    49 1   
    40    19    20 2   
    41    19    50 1   
    42    20    21 1   
    43    20    51 1   
    44    22    52 1   
    45    22    64 2   
    46    23    53 1   
    47    23    54 1   
    48    23    64 1   
    49    24    25 1   
    50    24    28 2   
    51    24    64 1   
    52    25    26 1   
    53    25    27 1   
    54    26    55 1   
    55    26    56 1   
    56    26    57 1   
    57    27    29 2   
    58    27    58 1   
    59    28    29 1   
    60    28    59 1   
    61    29    30 1   
    62    30    31 1   
    63    30    60 1   
    64    30    61 1   
    65    31    62 1   
    66    31    63 1   
@<TRIPOS>SUBSTRUCTURE
     1 162         1 TEMP              0 ****  ****    0 ROOT
