@<TRIPOS>MOLECULE
163
   64    66     1     0     0
SMALL
bcc


@<TRIPOS>ATOM
      1 C12          1.4900    -0.1850    -0.7250 c          1 163       0.513900
      2 O1           0.9030    -1.2240    -0.8710 o          1 163      -0.479100
      3 C13          3.0130    -0.0470    -0.7680 c3         1 163       0.143500
      4 C14          3.5490     0.5060     0.5620 c3         1 163      -0.065400
      5 C15          5.0460     0.8130     0.5410 c6         1 163      -0.056700
      6 C16          5.3940     1.9290    -0.4460 c6         1 163      -0.070400
      7 C17          6.8810     2.2700    -0.4190 c6         1 163      -0.072900
      8 C18          7.3410     2.6400     0.9860 c6         1 163      -0.072400
      9 C19          7.0070     1.5300     1.9770 c6         1 163      -0.072900
     10 C20          5.5210     1.1880     1.9450 c6         1 163      -0.070400
     11 N5           3.6820    -1.2580    -1.1480 n7         1 163      -0.807200
     12 C21          3.7060    -2.3460    -0.1920 c3         1 163       0.007800
     13 C22          3.8710    -3.7170    -0.8790 c          1 163       0.929600
     14 O2           4.1310    -4.6700    -0.1200 o          1 163      -0.836300
     15 O3           3.7090    -3.7660    -2.1140 o          1 163      -0.836300
     16 O           -0.8510    -0.6760     1.4020 o          1 163      -0.578100
     17 C8          -0.5900     1.0440    -0.2130 cc         1 163      -0.162900
     18 C9          -1.0220     2.3290    -0.3700 cd         1 163      -0.177000
     19 C10          0.0850     3.1060    -0.8110 cd         1 163      -0.212000
     20 C11          1.1540     2.2700    -0.9030 cc         1 163      -0.120300
     21 N4           0.7540     1.0020    -0.5340 n          1 163      -0.047200
     22 N           -8.7560     1.2470    -0.7730 n2         1 163      -0.848100
     23 N1          -8.2270     1.1120     1.4560 nv         1 163      -0.926800
     24 C1          -6.8450    -0.0910    -0.1120 cc         1 163      -0.248200
     25 N2          -5.6400    -0.0570     0.5400 na         1 163      -0.014100
     26 C2          -5.2270     0.9040     1.5450 c3         1 163       0.018600
     27 C3          -6.8080    -1.1190    -1.0300 cd         1 163      -0.171000
     28 C4          -5.5440    -1.7280    -0.9230 cd         1 163      -0.184000
     29 C5          -4.8430    -1.0510     0.0470 cc         1 163      -0.127600
     30 C6          -3.4430    -1.2850     0.4990 c3         1 163       0.167300
     31 N3          -2.5410    -0.2880    -0.0510 ns         1 163      -0.577900
     32 H13          3.2180     0.6890    -1.5550 h1         1 163       0.050700
     33 H141         3.0110     1.4180     0.8340 hc         1 163       0.047200
     34 H142         3.3370    -0.2140     1.3580 hc         1 163       0.047200
     35 H15          5.5830    -0.0910     0.2330 hc         1 163       0.086700
     36 H161         5.1030     1.6490    -1.4620 hc         1 163       0.033950
     37 H162         4.8140     2.8240    -0.1900 hc         1 163       0.033950
     38 H171         7.4560     1.4070    -0.7730 hc         1 163       0.035950
     39 H172         7.0880     3.0860    -1.1160 hc         1 163       0.035950
     40 H181         8.4140     2.8480     0.9930 hc         1 163       0.027700
     41 H182         6.8430     3.5650     1.2970 hc         1 163       0.027700
     42 H191         7.5890     0.6360     1.7260 hc         1 163       0.035950
     43 H192         7.3030     1.8200     2.9880 hc         1 163       0.035950
     44 H201         4.9410     2.0490     2.3000 hc         1 163       0.033950
     45 H202         5.3100     0.3670     2.6370 hc         1 163       0.033950
     46 H5           3.3350    -1.6150    -2.0280 hn         1 163       0.407800
     47 H211         4.5330    -2.2190     0.5140 h1         1 163       0.026700
     48 H212         2.7980    -2.4090     0.4240 h1         1 163       0.026700
     49 H9          -2.0140     2.6890    -0.1460 ha         1 163       0.141000
     50 H10          0.0880     4.1600    -1.0360 ha         1 163       0.145000
     51 H11          2.1530     2.4750    -1.2480 h4         1 163       0.172000
     52 H           -8.3840     1.0090    -1.6850 hn         1 163       0.394400
     53 H11A        -9.0970     1.5880     1.6410 hn         1 163       0.410300
     54 H12         -7.9710     0.4430     2.1640 hn         1 163       0.410300
     55 H21         -5.5230     0.5910     2.5450 h1         1 163       0.059367
     56 H22         -4.1460     1.0110     1.5220 h1         1 163       0.059367
     57 H23         -5.6620     1.8760     1.3370 h1         1 163       0.059367
     58 H3          -7.6210    -1.4090    -1.6770 ha         1 163       0.151000
     59 H4          -5.1730    -2.5720    -1.4850 ha         1 163       0.159000
     60 H61         -3.3640    -1.2650     1.5880 h1         1 163       0.067700
     61 H62         -3.1480    -2.2880     0.1830 h1         1 163       0.067700
     62 HN3         -2.7850     0.1290    -0.9360 hn         1 163       0.324500
     63 C7          -1.3110    -0.0740     0.4450 c          1 163       0.714700
     64 C           -7.9950     0.7930     0.1500 ce         1 163       0.686800
@<TRIPOS>BOND
     1     1     2 2   
     2     1     3 1   
     3     1    21 1   
     4     3     4 1   
     5     3    11 1   
     6     3    32 1   
     7     4     5 1   
     8     4    33 1   
     9     4    34 1   
    10     5     6 1   
    11     5    10 1   
    12     5    35 1   
    13     6     7 1   
    14     6    36 1   
    15     6    37 1   
    16     7     8 1   
    17     7    38 1   
    18     7    39 1   
    19     8     9 1   
    20     8    40 1   
    21     8    41 1   
    22     9    10 1   
    23     9    42 1   
    24     9    43 1   
    25    10    44 1   
    26    10    45 1   
    27    11    12 1   
    28    11    46 1   
    29    12    13 1   
    30    12    47 1   
    31    12    48 1   
    32    13    14 1   
    33    13    15 1   
    34    16    63 2   
    35    17    18 2   
    36    17    21 1   
    37    17    63 1   
    38    18    19 1   
    39    18    49 1   
    40    19    20 2   
    41    19    50 1   
    42    20    21 1   
    43    20    51 1   
    44    22    52 1   
    45    22    64 2   
    46    23    53 1   
    47    23    54 1   
    48    23    64 1   
    49    24    25 1   
    50    24    27 2   
    51    24    64 1   
    52    25    26 1   
    53    25    29 1   
    54    26    55 1   
    55    26    56 1   
    56    26    57 1   
    57    27    28 1   
    58    27    58 1   
    59    28    29 2   
    60    28    59 1   
    61    29    30 1   
    62    30    31 1   
    63    30    60 1   
    64    30    61 1   
    65    31    62 1   
    66    31    63 1   
@<TRIPOS>SUBSTRUCTURE
     1 163         1 TEMP              0 ****  ****    0 ROOT
