@<TRIPOS>MOLECULE
163
   64    66     1     0     0
SMALL
No Charge or Current Charge


@<TRIPOS>ATOM
      1 C12          1.8690    -0.6260    -1.8620 c          1 163       0.513900
      2 O1           1.5610    -1.7500    -2.2530 o          1 163      -0.479100
      3 C13          3.2950    -0.3190    -1.2600 c3         1 163       0.143500
      4 C14          3.2120     0.4310     0.1110 c3         1 163      -0.065400
      5 C15          4.5650     0.9130     0.7290 c6         1 163      -0.056700
      6 C16          5.2940     1.9540    -0.1720 c6         1 163      -0.070400
      7 C17          6.6170     2.4400     0.4700 c6         1 163      -0.072900
      8 C18          6.3780     3.0150     1.8860 c6         1 163      -0.072400
      9 C19          5.6630     1.9840     2.7910 c6         1 163      -0.072900
     10 C20          4.3380     1.5030     2.1510 c6         1 163      -0.070400
     11 N5           4.2110    -1.5150    -1.1750 n7         1 163      -0.862400
     12 C21          3.8910    -2.5700    -0.1460 c3         1 163       0.007800
     13 C22          4.7700    -3.8730    -0.2230 c          1 163       0.719000
     14 O2           5.3760    -4.2300     0.7800 o          1 163      -0.731000
     15 O3           4.8380    -4.4650    -1.2940 o          1 163      -0.731000
     16 O           -0.6500    -1.6860    -0.4880 o          1 163      -0.578100
     17 C8          -0.4290     0.4290    -1.6260 cc         1 163      -0.213600
     18 C9          -0.9870     1.6430    -1.9900 cd         1 163      -0.159000
     19 C10          0.0790     2.4660    -2.4710 cd         1 163      -0.194000
     20 C11          1.2260     1.7190    -2.3880 cc         1 163      -0.153000
     21 N4           0.9420     0.4520    -1.8970 n          1 163       0.054200
     22 N           -8.2960     2.0550     1.0710 n2         1 163      -0.848100
     23 N1          -7.2430     1.3120     2.8890 nv         1 163      -1.037200
     24 C1          -6.5940     0.4460     0.7150 cc         1 163      -0.298900
     25 N2          -5.2410     0.0900     0.8940 na         1 163       0.058000
     26 C2          -4.3620     0.5770     1.9750 c3         1 163       0.047900
     27 C3          -6.9590    -0.1250    -0.4800 cd         1 163      -0.153000
     28 C4          -5.8910    -0.8820    -0.9850 cd         1 163      -0.166000
     29 C5          -4.8290    -0.7720    -0.1350 cc         1 163      -0.178300
     30 C6          -3.4640    -1.3960    -0.2610 c3         1 163       0.167300
     31 N3          -2.5200    -0.4760    -0.8820 ns         1 163      -0.510900
     32 H13          3.7380     0.3850    -1.9760 h1         1 163       0.050700
     33 H141         2.5660     1.3080    -0.0020 hc         1 163       0.047200
     34 H142         2.6910    -0.2160     0.8260 hc         1 163       0.047200
     35 H15          5.2080     0.0270     0.8290 hc         1 163       0.086700
     36 H161         5.5190     1.5180    -1.1540 hc         1 163       0.033950
     37 H162         4.6370     2.8150    -0.3550 hc         1 163       0.033950
     38 H171         7.3290     1.6040     0.5260 hc         1 163       0.035950
     39 H172         7.0830     3.2030    -0.1680 hc         1 163       0.035950
     40 H181         7.3370     3.3070     2.3380 hc         1 163       0.027700
     41 H182         5.7730     3.9300     1.8170 hc         1 163       0.027700
     42 H191         6.3240     1.1230     2.9660 hc         1 163       0.035950
     43 H192         5.4620     2.4280     3.7750 hc         1 163       0.035950
     44 H201         3.6310     2.3430     2.0980 hc         1 163       0.033950
     45 H202         3.8740     0.7470     2.8000 hc         1 163       0.033950
     46 H5           4.2140    -1.9800    -2.0970 hn         1 163       0.463000
     47 H211         4.0010    -2.1570     0.8650 h1         1 163       0.026700
     48 H212         2.8470    -2.8940    -0.2460 h1         1 163       0.026700
     49 H9          -2.0260     1.9480    -1.8990 ha         1 163       0.123000
     50 H10         -0.0010     3.4890    -2.8300 ha         1 163       0.127000
     51 H11          2.2480     1.9460    -2.6650 h4         1 163       0.154000
     52 H           -8.2650     1.9180     0.0520 hn         1 163       0.394400
     53 H11A        -8.0360     1.7170     3.3690 hn         1 163       0.465500
     54 H12         -6.9080     0.4330     3.2610 hn         1 163       0.465500
     55 H21         -4.5020    -0.0420     2.8690 h1         1 163       0.059367
     56 H22         -3.3120     0.5260     1.6640 h1         1 163       0.059367
     57 H23         -4.6010     1.6200     2.2090 h1         1 163       0.059367
     58 H3          -7.9320    -0.0290    -0.9560 ha         1 163       0.133000
     59 H4          -5.9050    -1.4590    -1.9060 ha         1 163       0.141000
     60 H61         -3.0930    -1.6870     0.7310 h1         1 163       0.067700
     61 H62         -3.5310    -2.3030    -0.8760 h1         1 163       0.067700
     62 HN3         -2.8770     0.3720    -1.3010 hn         1 163       0.324500
     63 C7          -1.1650    -0.6840    -0.9600 c          1 163       0.647700
     64 C           -7.3660     1.3500     1.5560 ce         1 163       0.686800
@<TRIPOS>BOND
     1     1     2 2   
     2     1     3 1   
     3     1    21 1   
     4     3     4 1   
     5     3    11 1   
     6     3    32 1   
     7     4     5 1   
     8     4    33 1   
     9     4    34 1   
    10     5     6 1   
    11     5    10 1   
    12     5    35 1   
    13     6     7 1   
    14     6    36 1   
    15     6    37 1   
    16     7     8 1   
    17     7    38 1   
    18     7    39 1   
    19     8     9 1   
    20     8    40 1   
    21     8    41 1   
    22     9    10 1   
    23     9    42 1   
    24     9    43 1   
    25    10    44 1   
    26    10    45 1   
    27    11    12 1   
    28    11    46 1   
    29    12    13 1   
    30    12    47 1   
    31    12    48 1   
    32    13    14 1   
    33    13    15 1   
    34    16    63 2   
    35    17    18 2   
    36    17    21 1   
    37    17    63 1   
    38    18    19 1   
    39    18    49 1   
    40    19    20 2   
    41    19    50 1   
    42    20    21 1   
    43    20    51 1   
    44    22    52 1   
    45    22    64 2   
    46    23    53 1   
    47    23    54 1   
    48    23    64 1   
    49    24    25 1   
    50    24    27 2   
    51    24    64 1   
    52    25    26 1   
    53    25    29 1   
    54    26    55 1   
    55    26    56 1   
    56    26    57 1   
    57    27    28 1   
    58    27    58 1   
    59    28    29 2   
    60    28    59 1   
    61    29    30 1   
    62    30    31 1   
    63    30    60 1   
    64    30    61 1   
    65    31    62 1   
    66    31    63 1   
@<TRIPOS>SUBSTRUCTURE
     1 163         1 TEMP              0 ****  ****    0 ROOT
