@<TRIPOS>MOLECULE
164
   27    27     1     0     0
SMALL
abcg2


@<TRIPOS>ATOM
      1 O1           2.6610     0.2810     2.0930 o          1 164      -0.721500
      2 C7           1.6920     0.6030     1.3850 c          1 164       0.737000
      3 O2           1.5850     1.6210     0.6770 o          1 164      -0.721500
      4 C2           0.4880    -0.3950     1.3260 c6         1 164      -0.185500
      5 C3           0.2970    -1.1740     2.6190 c6         1 164       0.215500
      6 C4          -0.5000    -0.3960     3.6270 c2         1 164      -0.268200
      7 C5          -1.4200     0.4890     3.2300 ce         1 164      -0.148000
      8 C6          -1.6150     0.7750     1.8210 ce         1 164      -0.226000
      9 O9          -0.3800    -2.3900     2.3120 oh         1 164      -0.672000
     10 C1          -0.7410     0.3460     0.8950 cf         1 164      -0.065400
     11 C8          -0.9660     0.6970    -0.5330 c          1 164       0.599300
     12 O3          -1.7610     1.5660    -0.8420 o          1 164      -0.588100
     13 C9          -0.2120    -0.0870    -1.5760 c3         1 164      -0.154400
     14 C10         -0.5680     0.2630    -3.0080 c3         1 164      -0.192400
     15 C11          0.1880    -0.5420    -4.0810 c          1 164       0.715000
     16 O5          -0.0900    -0.2560    -5.2640 o          1 164      -0.757500
     17 O4           1.0040    -1.4060    -3.7040 o          1 164      -0.757500
     18 H2           0.7670    -1.1360     0.5660 hc         1 164       0.082700
     19 H3           1.2900    -1.3890     3.0220 h1         1 164       0.063700
     20 H4          -0.3740    -0.6270     4.6790 ha         1 164       0.136000
     21 H5          -2.0490     0.9980     3.9500 ha         1 164       0.137000
     22 H6          -2.4790     1.3600     1.5300 ha         1 164       0.168000
     23 HO9         -0.4520    -2.9030     3.1230 ho         1 164       0.403000
     24 H91          0.8550     0.0640    -1.3970 hc         1 164       0.077200
     25 H92         -0.3800    -1.1530    -1.3870 hc         1 164       0.077200
     26 H101        -1.6400     0.1230    -3.1750 hc         1 164       0.022700
     27 H102        -0.3870     1.3260    -3.1910 hc         1 164       0.022700
@<TRIPOS>BOND
     1     1     2 1   
     2     2     3 1   
     3     2     4 1   
     4     4     5 1   
     5     4    10 1   
     6     4    18 1   
     7     5     6 1   
     8     5     9 1   
     9     5    19 1   
    10     6     7 2   
    11     6    20 1   
    12     7     8 1   
    13     7    21 1   
    14     8    10 2   
    15     8    22 1   
    16     9    23 1   
    17    10    11 1   
    18    11    12 2   
    19    11    13 1   
    20    13    14 1   
    21    13    24 1   
    22    13    25 1   
    23    14    15 1   
    24    14    26 1   
    25    14    27 1   
    26    15    16 1   
    27    15    17 1   
@<TRIPOS>SUBSTRUCTURE
     1 164         1 TEMP              0 ****  ****    0 ROOT
