@<TRIPOS>MOLECULE
164
   27    27     1     0     0
SMALL
No Charge or Current Charge


@<TRIPOS>ATOM
      1 O1           2.5940     0.3210     0.5390 o          1 164      -0.721500
      2 C7           1.6990     0.5780     1.3310 c          1 164       0.737000
      3 O2           1.5330     1.7040     1.7750 o          1 164      -0.721500
      4 C2           0.5060    -0.4020     1.3670 c6         1 164      -0.185500
      5 C3           0.4010    -1.0410     2.7790 c6         1 164       0.215500
      6 C4          -0.4240    -0.2060     3.7360 c2         1 164      -0.268200
      7 C5          -1.4190     0.5900     3.2990 ce         1 164      -0.148000
      8 C6          -1.6890     0.7210     1.8680 ce         1 164      -0.226000
      9 O9          -0.2470    -2.3040     2.6780 oh         1 164      -0.672000
     10 C1          -0.8290     0.2700     0.9000 cf         1 164      -0.065400
     11 C8          -1.1780     0.4150    -0.5710 c          1 164       0.599300
     12 O3          -2.2210     0.9640    -0.9230 o          1 164      -0.588100
     13 C9          -0.2030    -0.1530    -1.6270 c3         1 164      -0.154400
     14 C10         -0.5930     0.0610    -3.1200 c3         1 164      -0.192400
     15 C11          0.4640    -0.5630    -4.0500 c          1 164       0.715000
     16 O5           1.4120     0.1270    -4.3910 o          1 164      -0.757500
     17 O4           0.3370    -1.7370    -4.3620 o          1 164      -0.757500
     18 H2           0.7750    -1.2270     0.6970 hc         1 164       0.082700
     19 H3           1.4160    -1.1760     3.1880 h1         1 164       0.063700
     20 H4          -0.2040    -0.3090     4.7980 ha         1 164       0.136000
     21 H5          -2.0430     1.1550     3.9950 ha         1 164       0.137000
     22 H6          -2.6190     1.2170     1.5840 ha         1 164       0.168000
     23 HO9         -1.1940    -2.0860     2.5460 ho         1 164       0.403000
     24 H91          0.7930     0.2480    -1.4150 hc         1 164       0.077200
     25 H92         -0.0580    -1.2150    -1.4050 hc         1 164       0.077200
     26 H101        -1.5590    -0.4440    -3.2520 hc         1 164       0.022700
     27 H102        -0.6370     1.1470    -3.2670 hc         1 164       0.022700
@<TRIPOS>BOND
     1     1     2 1   
     2     2     3 1   
     3     2     4 1   
     4     4     5 1   
     5     4    10 1   
     6     4    18 1   
     7     5     6 1   
     8     5     9 1   
     9     5    19 1   
    10     6     7 2   
    11     6    20 1   
    12     7     8 1   
    13     7    21 1   
    14     8    10 2   
    15     8    22 1   
    16     9    23 1   
    17    10    11 1   
    18    11    12 2   
    19    11    13 1   
    20    13    14 1   
    21    13    24 1   
    22    13    25 1   
    23    14    15 1   
    24    14    26 1   
    25    14    27 1   
    26    15    16 1   
    27    15    17 1   
@<TRIPOS>SUBSTRUCTURE
     1 164         1 TEMP              0 ****  ****    0 ROOT
