@<TRIPOS>MOLECULE
165
   74    78     1     0     0
SMALL
No Charge or Current Charge


@<TRIPOS>ATOM
      1 C7          -3.5050     2.1040    -0.1510 c3         1 165      -0.247100
      2 S8          -2.4140     1.6590     1.2140 s6         1 165       1.169100
      3 C5          -3.4070     3.5630    -0.5820 ca         1 165      -0.085300
      4 C4          -4.2690     4.5270    -0.0250 ca         1 165      -0.084000
      5 C3          -4.1780     5.8720    -0.4240 ca         1 165      -0.109000
      6 C2          -3.2270     6.2600    -1.3830 ca         1 165      -0.099000
      7 C1          -2.3660     5.3000    -1.9430 ca         1 165      -0.109000
      8 C6          -2.4560     3.9550    -1.5440 ca         1 165      -0.084000
      9 O36         -2.8180     2.4030     2.4080 o          1 165      -0.522500
     10 O37         -1.0190     1.6490     0.7720 o          1 165      -0.522500
     11 N9          -2.8400     0.0770     1.5110 n7         1 165      -0.882300
     12 C10         -2.4670    -0.9910     0.5320 c3         1 165       0.149500
     13 C18         -0.9750    -1.4740     0.6700 c          1 165       0.588100
     14 O38         -0.3730    -1.3570     1.7340 o          1 165      -0.605100
     15 C11         -3.4420    -2.1870     0.6990 c3         1 165      -0.068400
     16 C12         -4.9420    -1.9060     0.3630 c6         1 165      -0.057700
     17 C13         -5.8230    -3.1350     0.7280 c6         1 165      -0.070400
     18 C17         -5.1600    -1.5170    -1.1300 c6         1 165      -0.070400
     19 C14         -7.3190    -2.8810     0.4170 c6         1 165      -0.073400
     20 C16         -6.6560    -1.2670    -1.4430 c6         1 165      -0.073400
     21 C15         -7.5230    -2.4920    -1.0660 c6         1 165      -0.074400
     22 N19         -0.3380    -2.0790    -0.4380 n          1 165      -0.386800
     23 C23          1.0460    -2.6260    -0.3520 c5         1 165       0.027700
     24 C24          2.1680    -1.5370    -0.3630 c          1 165       0.597100
     25 O39          2.0430    -0.3600    -0.6870 o          1 165      -0.551100
     26 C22          1.1080    -3.4730    -1.6590 c5         1 165      -0.082400
     27 C21          0.2840    -2.6120    -2.6500 c5         1 165      -0.093400
     28 C20         -0.9380    -2.2050    -1.7880 c5         1 165       0.110000
     29 N25          3.3470    -2.1250     0.0820 ns         1 165      -0.138000
     30 C26          4.6580    -1.6090     0.2700 ca         1 165      -0.026000
     31 C31          5.0170    -0.2670    -0.0060 ca         1 165      -0.084000
     32 C30          6.3430     0.1390     0.2130 ca         1 165      -0.162000
     33 S34          6.9780     1.7520    -0.0690 ss         1 165      -0.032200
     34 C33          8.5170     1.0720     0.5020 cc         1 165       0.636100
     35 N35          9.6490     1.7910     0.5800 nv         1 165      -1.022200
     36 N32          8.5860    -0.1990     0.8620 nd         1 165      -0.628100
     37 C29          7.3090    -0.7270     0.6890 ca         1 165       0.115400
     38 C28          6.9700    -2.0590     0.9660 ca         1 165      -0.050000
     39 C27          5.6450    -2.4950     0.7550 ca         1 165      -0.155000
     40 H71         -3.2460     1.4450    -0.9850 h1         1 165       0.097700
     41 H72         -4.5190     1.8660     0.1870 h1         1 165       0.097700
     42 H4          -5.0070     4.2350     0.7190 ha         1 165       0.118500
     43 H3          -4.8460     6.6130     0.0100 ha         1 165       0.115500
     44 H2          -3.1570     7.3000    -1.6910 ha         1 165       0.113000
     45 H1          -1.6290     5.5990    -2.6850 ha         1 165       0.115500
     46 H6          -1.7850     3.2190    -1.9820 ha         1 165       0.118500
     47 HN9         -2.3170    -0.0900     2.3730 hn         1 165       0.506000
     48 H10         -2.5810    -0.6110    -0.4890 h1         1 165       0.076700
     49 H111        -3.0900    -3.0180     0.0770 hc         1 165       0.052200
     50 H112        -3.3610    -2.5430     1.7340 hc         1 165       0.052200
     51 H131        -5.4800    -4.0190     0.1730 hc         1 165       0.035200
     52 H171        -4.5960    -0.6100    -1.3790 hc         1 165       0.035200
     53 H141        -7.9060    -3.7790     0.6510 hc         1 165       0.040450
     54 H161        -6.7800    -1.0370    -2.5100 hc         1 165       0.040450
     55 H151        -7.2620    -3.3430    -1.7110 hc         1 165       0.039200
     56 H12         -5.2580    -1.0630     0.9930 hc         1 165       0.061700
     57 H132        -5.7100    -3.3740     1.7950 hc         1 165       0.035200
     58 H142        -7.7010    -2.0800     1.0660 hc         1 165       0.040450
     59 H152        -8.5830    -2.2720    -1.2530 hc         1 165       0.039200
     60 H162        -7.0060    -0.3830    -0.8910 hc         1 165       0.040450
     61 H172        -4.7750    -2.3130    -1.7840 hc         1 165       0.035200
     62 H23          1.1750    -3.2550     0.5400 h1         1 165       0.073700
     63 H221         2.1300    -3.6630    -2.0080 hc         1 165       0.059700
     64 H222         0.6340    -4.4520    -1.5100 hc         1 165       0.059700
     65 H211         0.8470    -1.7300    -2.9770 hc         1 165       0.067200
     66 H212        -0.0080    -3.1630    -3.5520 hc         1 165       0.067200
     67 H201        -1.7100    -2.9850    -1.7990 h1         1 165       0.050200
     68 H202        -1.3790    -1.2660    -2.1470 h1         1 165       0.050200
     69 H25          3.2600    -3.1060     0.3130 hn         1 165       0.149000
     70 H31          4.3000     0.4560    -0.3830 ha         1 165       0.160000
     71 H351         9.7000     2.6340     0.0190 hn         1 165       0.489000
     72 H352        10.5040     1.2550     0.6690 hn         1 165       0.489000
     73 H28          7.7230    -2.7480     1.3400 ha         1 165       0.129000
     74 H27          5.3880    -3.5300     0.9720 ha         1 165       0.110000
@<TRIPOS>BOND
     1     1     2 1   
     2     1     3 1   
     3     1    40 1   
     4     1    41 1   
     5     2     9 2   
     6     2    10 2   
     7     2    11 1   
     8     3     4 ar  
     9     3     8 ar  
    10     4     5 ar  
    11     4    42 1   
    12     5     6 ar  
    13     5    43 1   
    14     6     7 ar  
    15     6    44 1   
    16     7     8 ar  
    17     7    45 1   
    18     8    46 1   
    19    11    12 1   
    20    11    47 1   
    21    12    13 1   
    22    12    15 1   
    23    12    48 1   
    24    13    14 2   
    25    13    22 1   
    26    15    16 1   
    27    15    49 1   
    28    15    50 1   
    29    16    17 1   
    30    16    18 1   
    31    16    56 1   
    32    17    19 1   
    33    17    51 1   
    34    17    57 1   
    35    18    20 1   
    36    18    52 1   
    37    18    61 1   
    38    19    21 1   
    39    19    53 1   
    40    19    58 1   
    41    20    21 1   
    42    20    54 1   
    43    20    60 1   
    44    21    55 1   
    45    21    59 1   
    46    22    23 1   
    47    22    28 1   
    48    23    24 1   
    49    23    26 1   
    50    23    62 1   
    51    24    25 2   
    52    24    29 1   
    53    26    27 1   
    54    26    63 1   
    55    26    64 1   
    56    27    28 1   
    57    27    65 1   
    58    27    66 1   
    59    28    67 1   
    60    28    68 1   
    61    29    30 1   
    62    29    69 1   
    63    30    31 ar  
    64    30    39 ar  
    65    31    32 ar  
    66    31    70 1   
    67    32    33 1   
    68    32    37 ar  
    69    33    34 1   
    70    34    35 1   
    71    34    36 2   
    72    35    71 1   
    73    35    72 1   
    74    36    37 1   
    75    37    38 ar  
    76    38    39 ar  
    77    38    73 1   
    78    39    74 1   
@<TRIPOS>SUBSTRUCTURE
     1 165         1 TEMP              0 ****  ****    0 ROOT
