@<TRIPOS>MOLECULE
165
   74    78     1     0     0
SMALL
abcg2


@<TRIPOS>ATOM
      1 C7          -3.4390     2.2110    -0.0810 c3         1 165      -0.247100
      2 S8          -2.0260     1.4390     0.7170 s6         1 165       1.169100
      3 C5          -3.0810     3.5990    -0.5070 ca         1 165      -0.085300
      4 C4          -3.2800     4.6700     0.3600 ca         1 165      -0.084000
      5 C3          -2.9310     5.9570    -0.0240 ca         1 165      -0.109000
      6 C2          -2.3720     6.1820    -1.2750 ca         1 165      -0.099000
      7 C1          -2.1650     5.1170    -2.1420 ca         1 165      -0.109000
      8 C6          -2.5150     3.8300    -1.7580 ca         1 165      -0.084000
      9 O36         -1.7740     2.1240     1.9770 o          1 165      -0.522500
     10 O37         -0.9590     1.3440    -0.2710 o          1 165      -0.522500
     11 N9          -2.6110    -0.0640     1.0810 n7         1 165      -0.882300
     12 C10         -2.3540    -1.1440     0.1480 c3         1 165       0.149500
     13 C18         -0.9070    -1.6230     0.2410 c          1 165       0.588100
     14 O38         -0.2850    -1.5200     1.2900 o          1 165      -0.605100
     15 C11         -3.2850    -2.3210     0.4630 c3         1 165      -0.068400
     16 C12         -4.7740    -1.9950     0.3770 c6         1 165      -0.057700
     17 C13         -5.5980    -3.1950     0.8440 c6         1 165      -0.070400
     18 C17         -5.2020    -1.5740    -1.0280 c6         1 165      -0.070400
     19 C14         -7.0960    -2.9210     0.7680 c6         1 165      -0.073400
     20 C16         -6.7000    -1.2960    -1.1070 c6         1 165      -0.073400
     21 C15         -7.5140    -2.4960    -0.6340 c6         1 165      -0.074400
     22 N19         -0.3960    -2.2390    -0.8330 n          1 165      -0.386800
     23 C23          0.9140    -2.8490    -0.7530 c5         1 165       0.027700
     24 C24          1.9970    -1.7840    -0.6120 c          1 165       0.597100
     25 O39          1.9170    -0.7120    -1.1790 o          1 165      -0.551100
     26 C22          1.0370    -3.5900    -2.0920 c5         1 165      -0.082400
     27 C21          0.1890    -2.7560    -3.0450 c5         1 165      -0.093400
     28 C20         -0.9730    -2.2910    -2.1740 c5         1 165       0.110000
     29 N25          3.0470    -2.1830     0.1430 ns         1 165      -0.138000
     30 C26          4.2450    -1.5150     0.4230 ca         1 165      -0.026000
     31 C31          4.5850    -0.2720    -0.1080 ca         1 165      -0.084000
     32 C30          5.8070     0.2700     0.2560 ca         1 165      -0.162000
     33 S34          6.4830     1.7920    -0.2480 ss         1 165      -0.032200
     34 C33          7.9000     1.4400     0.7440 cc         1 165       0.636100
     35 N35          8.8850     2.3480     0.8290 nv         1 165      -1.022200
     36 N32          7.8740     0.3150     1.3790 nd         1 165      -0.628100
     37 C29          6.7070    -0.3630     1.1240 ca         1 165       0.115400
     38 C28          6.3470    -1.6050     1.6420 ca         1 165      -0.050000
     39 C27          5.1350    -2.1640     1.2920 ca         1 165      -0.155000
     40 H71         -3.7110     1.5800    -0.9300 h1         1 165       0.097700
     41 H72         -4.2550     2.1870     0.6420 h1         1 165       0.097700
     42 H4          -3.7220     4.4990     1.3340 ha         1 165       0.118500
     43 H3          -3.0970     6.7850     0.6540 ha         1 165       0.115500
     44 H2          -2.1030     7.1860    -1.5770 ha         1 165       0.113000
     45 H1          -1.7310     5.2880    -3.1180 ha         1 165       0.115500
     46 H6          -2.3580     3.0030    -2.4390 ha         1 165       0.118500
     47 HN9         -2.4470    -0.3010     2.0550 hn         1 165       0.506000
     48 H10         -2.5760    -0.7820    -0.8570 h1         1 165       0.076700
     49 H111        -3.0520    -3.1390    -0.2270 hc         1 165       0.052200
     50 H112        -3.0490    -2.6920     1.4660 hc         1 165       0.052200
     51 H131        -5.3520    -4.0650     0.2230 hc         1 165       0.035200
     52 H171        -4.6520    -0.6870    -1.3530 hc         1 165       0.035200
     53 H141        -7.6560    -3.8060     1.0810 hc         1 165       0.040450
     54 H161        -6.9740    -1.0300    -2.1310 hc         1 165       0.040450
     55 H151        -7.3640    -3.3300    -1.3270 hc         1 165       0.039200
     56 H12         -4.9810    -1.1620     1.0590 hc         1 165       0.061700
     57 H132        -5.3180    -3.4590     1.8690 hc         1 165       0.035200
     58 H142        -7.3520    -2.1260     1.4780 hc         1 165       0.040450
     59 H152        -8.5820    -2.2620    -0.6580 hc         1 165       0.039200
     60 H162        -6.9430    -0.4270    -0.4860 hc         1 165       0.040450
     61 H172        -4.9450    -2.3730    -1.7350 hc         1 165       0.035200
     62 H23          0.9590    -3.5470     0.0870 h1         1 165       0.073700
     63 H221         2.0710    -3.7020    -2.4170 hc         1 165       0.059700
     64 H222         0.6190    -4.5910    -1.9790 hc         1 165       0.059700
     65 H211         0.7520    -1.8970    -3.4080 hc         1 165       0.067200
     66 H212        -0.1530    -3.3210    -3.9100 hc         1 165       0.067200
     67 H201        -1.8060    -2.9980    -2.2120 h1         1 165       0.050200
     68 H202        -1.3440    -1.3140    -2.4840 h1         1 165       0.050200
     69 H25          2.9550    -3.0840     0.5880 hn         1 165       0.149000
     70 H31          3.9260     0.2560    -0.7780 ha         1 165       0.160000
     71 H351         8.9660     3.0770     0.1420 hn         1 165       0.489000
     72 H352         9.7460     2.0600     1.2640 hn         1 165       0.489000
     73 H28          7.0130    -2.1270     2.3160 ha         1 165       0.129000
     74 H27          4.8660    -3.1310     1.6990 ha         1 165       0.110000
@<TRIPOS>BOND
     1     1     2 1   
     2     1     3 1   
     3     1    40 1   
     4     1    41 1   
     5     2     9 2   
     6     2    10 2   
     7     2    11 1   
     8     3     4 ar  
     9     3     8 ar  
    10     4     5 ar  
    11     4    42 1   
    12     5     6 ar  
    13     5    43 1   
    14     6     7 ar  
    15     6    44 1   
    16     7     8 ar  
    17     7    45 1   
    18     8    46 1   
    19    11    12 1   
    20    11    47 1   
    21    12    13 1   
    22    12    15 1   
    23    12    48 1   
    24    13    14 2   
    25    13    22 1   
    26    15    16 1   
    27    15    49 1   
    28    15    50 1   
    29    16    17 1   
    30    16    18 1   
    31    16    56 1   
    32    17    19 1   
    33    17    51 1   
    34    17    57 1   
    35    18    20 1   
    36    18    52 1   
    37    18    61 1   
    38    19    21 1   
    39    19    53 1   
    40    19    58 1   
    41    20    21 1   
    42    20    54 1   
    43    20    60 1   
    44    21    55 1   
    45    21    59 1   
    46    22    23 1   
    47    22    28 1   
    48    23    24 1   
    49    23    26 1   
    50    23    62 1   
    51    24    25 2   
    52    24    29 1   
    53    26    27 1   
    54    26    63 1   
    55    26    64 1   
    56    27    28 1   
    57    27    65 1   
    58    27    66 1   
    59    28    67 1   
    60    28    68 1   
    61    29    30 1   
    62    29    69 1   
    63    30    31 ar  
    64    30    39 ar  
    65    31    32 ar  
    66    31    70 1   
    67    32    33 1   
    68    32    37 ar  
    69    33    34 1   
    70    34    35 1   
    71    34    36 2   
    72    35    71 1   
    73    35    72 1   
    74    36    37 1   
    75    37    38 ar  
    76    38    39 ar  
    77    38    73 1   
    78    39    74 1   
@<TRIPOS>SUBSTRUCTURE
     1 165         1 TEMP              0 ****  ****    0 ROOT
