@<TRIPOS>MOLECULE
166
   53    55     1     0     0
SMALL
No Charge or Current Charge


@<TRIPOS>ATOM
      1 C1           0.2120    -0.2060    -1.9160 c3         1 166      -0.046400
      2 C2           1.1810     0.4220    -2.9450 c3         1 166      -0.070400
      3 C3           2.6670     0.2010    -2.5850 c3         1 166      -0.077400
      4 C4           3.6410     0.8270    -3.6120 c3         1 166      -0.174700
      5 C5           5.0950     0.6220    -3.2560 c2         1 166       0.613200
      6 N6           5.6630    -0.5170    -3.6980 nv         1 166      -1.045200
      7 N7           5.7900     1.4480    -2.6050 n2         1 166      -0.870100
      8 O8          -1.6260    -1.5760    -3.9060 o          1 166      -0.729500
      9 O8A         -2.0580     0.4670    -4.4220 o          1 166      -0.729500
     10 O9          -4.6520    -1.2360    -0.8950 oh         1 166      -0.660000
     11 C10         -2.2640    -0.5680    -1.1520 c5         1 166       0.003600
     12 C11         -3.0330     0.9290     0.5620 ca         1 166      -0.076300
     13 C12         -2.0800    -0.0170     0.2480 ca         1 166      -0.051300
     14 C13         -3.7930    -0.1970    -1.3820 c5         1 166       0.170300
     15 C14         -4.0110     1.1360    -0.5630 c5         1 166      -0.076100
     16 C36         -1.1010    -0.3870     1.1860 ca         1 166      -0.086000
     17 C37         -1.0630     0.2350     2.4620 cp         1 166      -0.052000
     18 C38         -2.0480     1.2200     2.7530 ca         1 166      -0.119000
     19 C39         -3.0350     1.5670     1.8100 ca         1 166      -0.111000
     20 C43         -0.0170    -0.1350     3.4680 cp         1 166      -0.045000
     21 C44         -0.3070    -0.1500     4.8570 ca         1 166      -0.067500
     22 C45          0.6760    -0.4980     5.8010 ca         1 166      -0.178500
     23 C6           1.9680    -0.8370     5.3750 ca         1 166       0.123100
     24 C7           2.2790    -0.8280     4.0090 ca         1 166      -0.178500
     25 C8           1.2980    -0.4820     3.0640 ca         1 166      -0.067500
     26 O54          2.9250    -1.1740     6.2840 oh         1 166      -0.540100
     27 C16         -1.2940     0.0650    -2.2040 c3         1 166      -0.187700
     28 C15         -1.6830    -0.3870    -3.6320 c          1 166       0.710000
     29 H12          0.3850    -1.2880    -1.8700 hc         1 166       0.023200
     30 H11          0.4660     0.1980    -0.9300 hc         1 166       0.023200
     31 H22          0.9830     1.4990    -3.0150 hc         1 166       0.051700
     32 H21          0.9910    -0.0040    -3.9380 hc         1 166       0.051700
     33 H32          2.8640    -0.8760    -2.5120 hc         1 166       0.035700
     34 H31          2.8660     0.6290    -1.5940 hc         1 166       0.035700
     35 H42          3.4290     1.9000    -3.6910 hc         1 166       0.056200
     36 H41          3.4310     0.4100    -4.6050 hc         1 166       0.056200
     37 H62          6.6740    -0.4640    -3.7180 hn         1 166       0.459000
     38 H61          5.2340    -0.9110    -4.5280 hn         1 166       0.459000
     39 HN7          5.1860     2.2450    -2.3600 hn         1 166       0.392400
     40 H10         -2.1180    -1.6550    -1.1820 hc         1 166       0.096700
     41 H13         -4.0090    -0.0280    -2.4460 h1         1 166       0.082700
     42 H142        -3.7490     2.0170    -1.1600 hc         1 166       0.051200
     43 H141        -5.0440     1.2630    -0.2220 hc         1 166       0.051200
     44 H36         -0.3800    -1.1590     0.9290 ha         1 166       0.117000
     45 H38         -2.0430     1.7270     3.7140 ha         1 166       0.096000
     46 H39         -3.7860     2.3160     2.0470 ha         1 166       0.100000
     47 H44         -1.3070     0.0970     5.2050 ha         1 166       0.119000
     48 H45          0.4230    -0.5040     6.8590 ha         1 166       0.114000
     49 H7           3.2820    -1.0870     3.6780 ha         1 166       0.114000
     50 H8           1.5640    -0.4680     2.0100 ha         1 166       0.119000
     51 H54          2.5310    -1.1250     7.1810 ho         1 166       0.456000
     52 H16         -1.4260     1.1540    -2.1630 hc         1 166       0.035700
     53 H9          -5.5710    -0.8980    -0.9610 ho         1 166       0.423000
@<TRIPOS>BOND
     1     1     2 1   
     2     1    27 1   
     3     1    29 1   
     4     1    30 1   
     5     2     3 1   
     6     2    31 1   
     7     2    32 1   
     8     3     4 1   
     9     3    33 1   
    10     3    34 1   
    11     4     5 1   
    12     4    35 1   
    13     4    36 1   
    14     5     6 1   
    15     5     7 2   
    16     6    37 1   
    17     6    38 1   
    18     7    39 1   
    19     8    28 1   
    20     9    28 1   
    21    10    14 1   
    22    10    53 1   
    23    11    13 1   
    24    11    14 1   
    25    11    27 1   
    26    11    40 1   
    27    12    13 ar  
    28    12    15 1   
    29    12    19 ar  
    30    13    16 ar  
    31    14    15 1   
    32    14    41 1   
    33    15    42 1   
    34    15    43 1   
    35    16    17 ar  
    36    16    44 1   
    37    17    18 ar  
    38    17    20 1   
    39    18    19 ar  
    40    18    45 1   
    41    19    46 1   
    42    20    21 ar  
    43    20    25 ar  
    44    21    22 ar  
    45    21    47 1   
    46    22    23 ar  
    47    22    48 1   
    48    23    24 ar  
    49    23    26 1   
    50    24    25 ar  
    51    24    49 1   
    52    25    50 1   
    53    26    51 1   
    54    27    28 1   
    55    27    52 1   
@<TRIPOS>SUBSTRUCTURE
     1 166         1 TEMP              0 ****  ****    0 ROOT
