@<TRIPOS>MOLECULE
166
   53    55     1     0     0
SMALL
abcg2


@<TRIPOS>ATOM
      1 C1           0.1140    -0.3250    -1.8950 c3         1 166      -0.046400
      2 C2           1.1070     0.2820    -2.8780 c3         1 166      -0.070400
      3 C3           2.5470    -0.0690    -2.5220 c3         1 166      -0.077400
      4 C4           3.5510     0.5820    -3.4600 c3         1 166      -0.174700
      5 C5           5.0040     0.2830    -3.1640 c2         1 166       0.613200
      6 N6           5.8720     0.8880    -4.0270 nv         1 166      -1.045200
      7 N7           5.4510    -0.4830    -2.2450 n2         1 166      -0.870100
      8 O8          -1.7070    -1.6930    -3.7750 o          1 166      -0.729500
      9 O8A         -2.0420     0.4060    -4.4400 o          1 166      -0.729500
     10 O9          -4.5650    -1.2260    -0.8400 oh         1 166      -0.660000
     11 C10         -2.2920    -0.5900    -1.1330 c5         1 166       0.003600
     12 C11         -2.9890     0.9740     0.5230 ca         1 166      -0.076300
     13 C12         -2.0610    -0.0290     0.2470 ca         1 166      -0.051300
     14 C13         -3.7610    -0.2020    -1.3890 c5         1 166       0.170300
     15 C14         -3.9410     1.1220    -0.6270 c5         1 166      -0.076100
     16 C36         -1.0990    -0.3660     1.1830 ca         1 166      -0.086000
     17 C37         -1.0300     0.3210     2.4010 cp         1 166      -0.052000
     18 C38         -1.9600     1.3320     2.6550 ca         1 166      -0.119000
     19 C39         -2.9430     1.6550     1.7270 ca         1 166      -0.111000
     20 C43          0.0130    -0.0130     3.3920 cp         1 166      -0.045000
     21 C44         -0.2380     0.0440     4.7630 ca         1 166      -0.067500
     22 C45          0.7440    -0.2560     5.6940 ca         1 166      -0.178500
     23 C6           2.0170    -0.6270     5.2710 ca         1 166       0.123100
     24 C7           2.2880    -0.6930     3.9060 ca         1 166      -0.178500
     25 C8           1.2970    -0.3890     2.9890 ca         1 166      -0.067500
     26 O54          3.0120    -0.9280     6.1280 oh         1 166      -0.540100
     27 C16         -1.3440     0.0300    -2.1810 c3         1 166      -0.187700
     28 C15         -1.7350    -0.4570    -3.5930 c          1 166       0.710000
     29 H12          0.2210    -1.4150    -1.8870 hc         1 166       0.023200
     30 H11          0.3830     0.0170    -0.8910 hc         1 166       0.023200
     31 H22          0.9890     1.3710    -2.8910 hc         1 166       0.051700
     32 H21          0.8970    -0.0600    -3.8960 hc         1 166       0.051700
     33 H32          2.6630    -1.1570    -2.5460 hc         1 166       0.035700
     34 H31          2.7480     0.2440    -1.4930 hc         1 166       0.035700
     35 H42          3.4190     1.6690    -3.4400 hc         1 166       0.056200
     36 H41          3.3480     0.2800    -4.4920 hc         1 166       0.056200
     37 H62          6.8430     0.9020    -3.7590 hn         1 166       0.459000
     38 H61          5.5640     1.7150    -4.5090 hn         1 166       0.459000
     39 HN7          4.6900    -0.9000    -1.7240 hn         1 166       0.392400
     40 H10         -2.1700    -1.6770    -1.1700 hc         1 166       0.096700
     41 H13         -3.9750    -0.0700    -2.4550 h1         1 166       0.082700
     42 H142        -3.6560     1.9670    -1.2620 hc         1 166       0.051200
     43 H141        -4.9760     1.2970    -0.3240 hc         1 166       0.051200
     44 H36         -0.4080    -1.1770     0.9880 ha         1 166       0.117000
     45 H38         -1.9110     1.8850     3.5850 ha         1 166       0.096000
     46 H39         -3.6600     2.4360     1.9500 ha         1 166       0.100000
     47 H44         -1.2240     0.3120     5.1200 ha         1 166       0.119000
     48 H45          0.5110    -0.2060     6.7520 ha         1 166       0.114000
     49 H7           3.2770    -0.9720     3.5660 ha         1 166       0.114000
     50 H8           1.5420    -0.4260     1.9340 ha         1 166       0.119000
     51 H54          2.7120    -0.8350     7.0390 ho         1 166       0.456000
     52 H16         -1.4450     1.1210    -2.1410 hc         1 166       0.035700
     53 H9          -5.4870    -0.9650    -0.9280 ho         1 166       0.423000
@<TRIPOS>BOND
     1     1     2 1   
     2     1    27 1   
     3     1    29 1   
     4     1    30 1   
     5     2     3 1   
     6     2    31 1   
     7     2    32 1   
     8     3     4 1   
     9     3    33 1   
    10     3    34 1   
    11     4     5 1   
    12     4    35 1   
    13     4    36 1   
    14     5     6 1   
    15     5     7 2   
    16     6    37 1   
    17     6    38 1   
    18     7    39 1   
    19     8    28 1   
    20     9    28 1   
    21    10    14 1   
    22    10    53 1   
    23    11    13 1   
    24    11    14 1   
    25    11    27 1   
    26    11    40 1   
    27    12    13 ar  
    28    12    15 1   
    29    12    19 ar  
    30    13    16 ar  
    31    14    15 1   
    32    14    41 1   
    33    15    42 1   
    34    15    43 1   
    35    16    17 ar  
    36    16    44 1   
    37    17    18 ar  
    38    17    20 1   
    39    18    19 ar  
    40    18    45 1   
    41    19    46 1   
    42    20    21 ar  
    43    20    25 ar  
    44    21    22 ar  
    45    21    47 1   
    46    22    23 ar  
    47    22    48 1   
    48    23    24 ar  
    49    23    26 1   
    50    24    25 ar  
    51    24    49 1   
    52    25    50 1   
    53    26    51 1   
    54    27    28 1   
    55    27    52 1   
@<TRIPOS>SUBSTRUCTURE
     1 166         1 TEMP              0 ****  ****    0 ROOT
