@<TRIPOS>MOLECULE
167
   56    58     1     0     0
SMALL
No Charge or Current Charge


@<TRIPOS>ATOM
      1 C1           0.0210     0.3150    -2.7910 c3         1 167      -0.044400
      2 C2          -0.6770    -0.4450    -3.9440 c3         1 167      -0.076400
      3 C3          -2.1290     0.0270    -4.1840 c3         1 167      -0.064400
      4 C4          -2.8320    -0.7300    -5.3360 c3         1 167      -0.117700
      5 C5          -4.2610    -0.2800    -5.5630 c2         1 167       0.611200
      6 N6          -4.4210     0.8330    -6.3160 nv         1 167      -1.094200
      7 N7          -5.2730    -0.8730    -5.0980 n2         1 167      -0.829100
      8 O8           2.6180     0.9200    -4.2400 o          1 167      -0.731000
      9 O8A          2.7900    -1.2220    -4.1510 o          1 167      -0.731000
     10 O9           4.4150     1.0190    -0.3540 oh         1 167      -0.659000
     11 C10          2.1500     0.5800    -1.2950 c5         1 167       0.000600
     12 C11          2.0400    -0.5170     0.8400 ca         1 167      -0.090300
     13 C12          1.4360     0.4240     0.0330 ca         1 167      -0.034300
     14 C13          3.5730    -0.0060    -0.8960 c5         1 167       0.171300
     15 C14          3.2630    -1.1080     0.1920 c5         1 167      -0.075100
     16 C36          0.3080     1.1280     0.4820 ca         1 167      -0.103000
     17 C37         -0.2160     0.8410     1.7570 ca         1 167      -0.100000
     18 C38          0.3810    -0.1410     2.5980 cp         1 167      -0.077000
     19 C39          1.5330    -0.8180     2.1130 ca         1 167      -0.089000
     20 C43         -0.1790    -0.4450     3.9540 cp         1 167       0.031000
     21 C44         -0.7710     0.5690     4.7480 ca         1 167      -0.142000
     22 C45         -1.2980     0.2920     6.0190 ca         1 167       0.132100
     23 C24         -1.2420    -1.0230     6.5260 ca         1 167      -0.211000
     24 C25         -0.6610    -2.0440     5.7570 ca         1 167      -0.080000
     25 C6          -0.1350    -1.7570     4.4870 ca         1 167      -0.142000
     26 O54         -1.8530     1.3380     6.7290 os         1 167      -0.345100
     27 C16          1.4590    -0.1880    -2.4710 c3         1 167      -0.187700
     28 C15          2.3560    -0.1600    -3.7310 c          1 167       0.711000
     29 H12         -0.6030     0.2100    -1.8970 hc         1 167       0.022700
     30 H11          0.0530     1.3850    -3.0320 hc         1 167       0.022700
     31 H22         -0.1060    -0.3150    -4.8710 hc         1 167       0.049700
     32 H21         -0.6810    -1.5180    -3.7170 hc         1 167       0.049700
     33 H32         -2.7100    -0.1060    -3.2620 hc         1 167       0.045700
     34 H31         -2.1260     1.1020    -4.4060 hc         1 167       0.045700
     35 H42         -2.2480    -0.6100    -6.2560 hc         1 167       0.049700
     36 H41         -2.8190    -1.8040    -5.1110 hc         1 167       0.049700
     37 H62         -5.2380     0.8200    -6.9160 hn         1 167       0.454500
     38 H61         -3.5730     1.1530    -6.7730 hn         1 167       0.454500
     39 HN7         -6.1060    -0.3390    -5.3700 hn         1 167       0.351400
     40 H10          2.2310     1.6320    -1.5910 hc         1 167       0.100700
     41 H13          4.0780    -0.4580    -1.7610 h1         1 167       0.079700
     42 H142         3.0380    -2.0750    -0.2730 hc         1 167       0.049200
     43 H141         4.0930    -1.2620     0.8910 hc         1 167       0.049200
     44 H36         -0.1590     1.8830    -0.1460 ha         1 167       0.119000
     45 H37         -1.1020     1.3760     2.0900 ha         1 167       0.103000
     46 H39          2.0390    -1.5570     2.7290 ha         1 167       0.102000
     47 H44         -0.8100     1.5900     4.3800 ha         1 167       0.130000
     48 H24         -1.6410    -1.2710     7.5050 ha         1 167       0.106000
     49 H25         -0.6190    -3.0600     6.1450 ha         1 167       0.102000
     50 H6           0.2980    -2.5650     3.9040 ha         1 167       0.119000
     51 H533        -2.8020     2.1150     8.4210 h1         1 167       0.034367
     52 H532        -3.2510     0.4450     8.0120 h1         1 167       0.034367
     53 H531        -1.6610     0.7930     8.7450 h1         1 167       0.034367
     54 H16          1.3590    -1.2380    -2.1680 hc         1 167       0.034700
     55 C53         -2.4190     1.1600     8.0400 c3         1 167       0.153900
     56 H9           5.2240     0.5740    -0.0200 ho         1 167       0.422000
@<TRIPOS>BOND
     1     1     2 1   
     2     1    27 1   
     3     1    29 1   
     4     1    30 1   
     5     2     3 1   
     6     2    31 1   
     7     2    32 1   
     8     3     4 1   
     9     3    33 1   
    10     3    34 1   
    11     4     5 1   
    12     4    35 1   
    13     4    36 1   
    14     5     6 1   
    15     5     7 2   
    16     6    37 1   
    17     6    38 1   
    18     7    39 1   
    19     8    28 1   
    20     9    28 1   
    21    10    14 1   
    22    10    56 1   
    23    11    13 1   
    24    11    14 1   
    25    11    27 1   
    26    11    40 1   
    27    12    13 ar  
    28    12    15 1   
    29    12    19 ar  
    30    13    16 ar  
    31    14    15 1   
    32    14    41 1   
    33    15    42 1   
    34    15    43 1   
    35    16    17 ar  
    36    16    44 1   
    37    17    18 ar  
    38    17    45 1   
    39    18    19 ar  
    40    18    20 1   
    41    19    46 1   
    42    20    21 ar  
    43    20    25 ar  
    44    21    22 ar  
    45    21    47 1   
    46    22    23 ar  
    47    22    26 1   
    48    23    24 ar  
    49    23    48 1   
    50    24    25 ar  
    51    24    49 1   
    52    25    50 1   
    53    26    55 1   
    54    27    28 1   
    55    27    54 1   
    56    51    55 1   
    57    52    55 1   
    58    53    55 1   
@<TRIPOS>SUBSTRUCTURE
     1 167         1 TEMP              0 ****  ****    0 ROOT
