@<TRIPOS>MOLECULE
167
   56    58     1     0     0
SMALL
abcg2


@<TRIPOS>ATOM
      1 C1           0.1020     0.4270    -2.7150 c3         1 167      -0.044400
      2 C2          -0.5660    -0.2210    -3.9230 c3         1 167      -0.076400
      3 C3          -2.0310     0.1790    -4.0610 c3         1 167      -0.064400
      4 C4          -2.6680    -0.4180    -5.3030 c3         1 167      -0.117700
      5 C5          -4.1250    -0.0860    -5.5060 c2         1 167       0.611200
      6 N6          -4.6220    -0.4990    -6.7100 nv         1 167      -1.094200
      7 N7          -4.7720     0.5590    -4.6140 n2         1 167      -0.829100
      8 O8           2.6930     1.1550    -4.0160 o          1 167      -0.731000
      9 O8A          2.7200    -1.0600    -4.2380 o          1 167      -0.731000
     10 O9           4.3090     0.9930    -0.2820 oh         1 167      -0.659000
     11 C10          2.1600     0.6080    -1.2270 c5         1 167       0.000600
     12 C11          1.9570    -0.5380     0.8530 ca         1 167      -0.090300
     13 C12          1.3960     0.4640     0.0640 ca         1 167      -0.034300
     14 C13          3.5170    -0.0240    -0.8610 c5         1 167       0.171300
     15 C14          3.1630    -1.1110     0.1670 c5         1 167      -0.075100
     16 C36          0.2940     1.1650     0.5280 ca         1 167      -0.103000
     17 C37         -0.2440     0.8490     1.7710 ca         1 167      -0.100000
     18 C38          0.3050    -0.1620     2.5620 cp         1 167      -0.077000
     19 C39          1.4220    -0.8580     2.0870 ca         1 167      -0.089000
     20 C43         -0.2670    -0.4830     3.8860 cp         1 167       0.031000
     21 C44         -0.7460     0.5300     4.7100 ca         1 167      -0.142000
     22 C45         -1.2880     0.2430     5.9630 ca         1 167       0.132100
     23 C24         -1.3520    -1.0770     6.4030 ca         1 167      -0.211000
     24 C25         -0.8710    -2.0870     5.5770 ca         1 167      -0.080000
     25 C6          -0.3330    -1.8060     4.3340 ca         1 167      -0.142000
     26 O54         -1.7130     1.3030     6.6780 os         1 167      -0.345100
     27 C16          1.4960    -0.1220    -2.4100 c3         1 167      -0.187700
     28 C15          2.3880    -0.0040    -3.6640 c          1 167       0.711000
     29 H12         -0.5440     0.2870    -1.8440 hc         1 167       0.022700
     30 H11          0.1660     1.5090    -2.8740 hc         1 167       0.022700
     31 H22         -0.0290     0.0540    -4.8360 hc         1 167       0.049700
     32 H21         -0.4920    -1.3110    -3.8420 hc         1 167       0.049700
     33 H32         -2.5820    -0.1410    -3.1730 hc         1 167       0.045700
     34 H31         -2.1150     1.2690    -4.0930 hc         1 167       0.045700
     35 H42         -2.1180    -0.0980    -6.1940 hc         1 167       0.049700
     36 H41         -2.5710    -1.5100    -5.2820 hc         1 167       0.049700
     37 H62         -5.6210    -0.5340    -6.8310 hn         1 167       0.454500
     38 H61         -4.1190    -1.2070    -7.2190 hn         1 167       0.454500
     39 HN7         -5.7400     0.6980    -4.8960 hn         1 167       0.351400
     40 H10          2.2910     1.6550    -1.5150 hc         1 167       0.100700
     41 H13          4.0190    -0.4580    -1.7320 h1         1 167       0.079700
     42 H142         2.9120    -2.0480    -0.3390 hc         1 167       0.049200
     43 H141         3.9900    -1.3360     0.8460 hc         1 167       0.049200
     44 H36         -0.1490     1.9580    -0.0610 ha         1 167       0.119000
     45 H37         -1.1140     1.3900     2.1220 ha         1 167       0.103000
     46 H39          1.8860    -1.6200     2.7020 ha         1 167       0.102000
     47 H44         -0.6820     1.5650     4.3960 ha         1 167       0.130000
     48 H24         -1.7650    -1.3370     7.3670 ha         1 167       0.106000
     49 H25         -0.9290    -3.1130     5.9160 ha         1 167       0.102000
     50 H6           0.0160    -2.6130     3.7030 ha         1 167       0.119000
     51 H533        -2.5100     2.0530     8.3680 h1         1 167       0.034367
     52 H532        -3.1450     0.4570     7.9370 h1         1 167       0.034367
     53 H531        -1.5170     0.6110     8.6350 h1         1 167       0.034367
     54 H16          1.3890    -1.1840    -2.1550 hc         1 167       0.034700
     55 C53         -2.2460     1.0780     7.9680 c3         1 167       0.153900
     56 H9           5.1280     0.5970     0.0300 ho         1 167       0.422000
@<TRIPOS>BOND
     1     1     2 1   
     2     1    27 1   
     3     1    29 1   
     4     1    30 1   
     5     2     3 1   
     6     2    31 1   
     7     2    32 1   
     8     3     4 1   
     9     3    33 1   
    10     3    34 1   
    11     4     5 1   
    12     4    35 1   
    13     4    36 1   
    14     5     6 1   
    15     5     7 2   
    16     6    37 1   
    17     6    38 1   
    18     7    39 1   
    19     8    28 1   
    20     9    28 1   
    21    10    14 1   
    22    10    56 1   
    23    11    13 1   
    24    11    14 1   
    25    11    27 1   
    26    11    40 1   
    27    12    13 ar  
    28    12    15 1   
    29    12    19 ar  
    30    13    16 ar  
    31    14    15 1   
    32    14    41 1   
    33    15    42 1   
    34    15    43 1   
    35    16    17 ar  
    36    16    44 1   
    37    17    18 ar  
    38    17    45 1   
    39    18    19 ar  
    40    18    20 1   
    41    19    46 1   
    42    20    21 ar  
    43    20    25 ar  
    44    21    22 ar  
    45    21    47 1   
    46    22    23 ar  
    47    22    26 1   
    48    23    24 ar  
    49    23    48 1   
    50    24    25 ar  
    51    24    49 1   
    52    25    50 1   
    53    26    55 1   
    54    27    28 1   
    55    27    54 1   
    56    51    55 1   
    57    52    55 1   
    58    53    55 1   
@<TRIPOS>SUBSTRUCTURE
     1 167         1 TEMP              0 ****  ****    0 ROOT
