@<TRIPOS>MOLECULE
168
   59    58     1     0     0
SMALL
No Charge or Current Charge


@<TRIPOS>ATOM
      1 C2           3.1370     0.5250     6.3250 c3         1 168      -0.156100
      2 C1           2.0110    -0.3430     6.8670 c          1 168       0.594100
      3 O1           2.1870    -1.4270     7.4070 o          1 168      -0.479000
      4 OP1          0.7880     0.2400     6.6710 os         1 168      -0.466100
      5 CP2         -0.3830    -0.4710     7.1270 c3         1 168       0.146600
      6 CP3         -1.6310     0.3710     6.7760 c3         1 168       0.102000
      7 NP4         -1.7580     0.6540     5.3380 ns         1 168      -0.507900
      8 CP5         -2.0630    -0.2850     4.3810 c          1 168       0.602100
      9 OP5         -2.3390    -1.4410     4.6630 o          1 168      -0.598100
     10 CP6         -2.0690     0.2330     2.9450 c3         1 168      -0.182400
     11 CP7         -0.8410    -0.2920     2.1800 c3         1 168       0.110000
     12 NP8         -0.7990     0.2160     0.8060 ns         1 168      -0.503900
     13 CP9         -1.5210    -0.3090    -0.2490 c          1 168       0.575100
     14 OP9         -2.2890    -1.2520    -0.0970 o          1 168      -0.604100
     15 CPA         -1.3590     0.4330    -1.6190 c3         1 168       0.098300
     16 OPA         -2.6470     0.6140    -2.2610 oh         1 168      -0.643000
     17 CPB         -0.3460    -0.2510    -2.6110 c3         1 168      -0.067000
     18 CPD          1.0380    -0.4150    -1.9120 c3         1 168      -0.088100
     19 CPE         -0.8470    -1.6590    -3.0590 c3         1 168      -0.088100
     20 CPC         -0.1840     0.6730    -3.8610 c3         1 168       0.170600
     21 OA6          0.7810     0.0950    -4.7610 os         1 168      -0.450100
     22 CT1          1.0680     0.7630    -5.9230 c          1 168       0.596100
     23 OT1          0.5500     1.8280    -6.2400 o          1 168      -0.487000
     24 CT2          2.1270     0.0090    -6.7840 c3         1 168      -0.097000
     25 CT3          2.4270     0.7960    -8.0910 c3         1 168      -0.081433
     26 CT4          3.4410    -0.1400    -5.9680 c3         1 168      -0.081433
     27 CT5          1.5820    -1.3990    -7.1520 c3         1 168      -0.081433
     28 H21          4.1250     0.0740     6.4700 hc         1 168       0.070700
     29 H22          2.9380     0.7420     5.2700 hc         1 168       0.070700
     30 H23          3.0700     1.5170     6.7830 hc         1 168       0.070700
     31 HP21        -0.4570    -1.4540     6.6430 h1         1 168       0.061700
     32 HP22        -0.3470    -0.6270     8.2140 h1         1 168       0.061700
     33 HP31        -2.5300    -0.1600     7.1150 h1         1 168       0.065200
     34 HP32        -1.5830     1.3240     7.3190 h1         1 168       0.065200
     35 HP4         -1.5430     1.5880     5.0100 hn         1 168       0.319500
     36 HP61        -2.9750    -0.1270     2.4430 hc         1 168       0.059700
     37 HP62        -2.0450     1.3290     2.9340 hc         1 168       0.059700
     38 HP71         0.0770     0.0200     2.6990 h1         1 168       0.076700
     39 HP72        -0.8550    -1.3910     2.1600 h1         1 168       0.076700
     40 HP8         -0.2030     1.0110     0.6060 hn         1 168       0.310500
     41 HPA         -0.9520     1.4240    -1.3750 h1         1 168       0.070700
     42 HPA0        -3.1740    -0.1950    -2.0670 ho         1 168       0.468000
     43 HPD1         1.4250     0.5540    -1.5750 hc         1 168       0.043033
     44 HPD2         0.9730    -1.0780    -1.0410 hc         1 168       0.043033
     45 HPD3         1.7800    -0.8540    -2.5910 hc         1 168       0.043033
     46 HPE1        -1.8020    -1.5920    -3.5930 hc         1 168       0.043033
     47 HPE2        -0.1260    -2.1380    -3.7320 hc         1 168       0.043033
     48 HPE3        -0.9820    -2.3280    -2.2010 hc         1 168       0.043033
     49 HPC1        -1.1510     0.7870    -4.3690 h1         1 168       0.055700
     50 HPC2         0.1450     1.6700    -3.5370 h1         1 168       0.055700
     51 HT31         3.1710     0.2710    -8.7030 hc         1 168       0.043367
     52 HT32         1.5190     0.9150    -8.6950 hc         1 168       0.043367
     53 HT33         2.8190     1.7950    -7.8670 hc         1 168       0.043367
     54 HT41         3.8260     0.8430    -5.6680 hc         1 168       0.043367
     55 HT42         3.2820    -0.7320    -5.0590 hc         1 168       0.043367
     56 HT43         4.2160    -0.6410    -6.5610 hc         1 168       0.043367
     57 HT51         0.6350    -1.3190    -7.7000 hc         1 168       0.043367
     58 HT52         2.2950    -1.9420    -7.7840 hc         1 168       0.043367
     59 HT53         1.4020    -2.0050    -6.2550 hc         1 168       0.043367
@<TRIPOS>BOND
     1     1     2 1   
     2     1    28 1   
     3     1    29 1   
     4     1    30 1   
     5     2     3 2   
     6     2     4 1   
     7     4     5 1   
     8     5     6 1   
     9     5    31 1   
    10     5    32 1   
    11     6     7 1   
    12     6    33 1   
    13     6    34 1   
    14     7     8 1   
    15     7    35 1   
    16     8     9 2   
    17     8    10 1   
    18    10    11 1   
    19    10    36 1   
    20    10    37 1   
    21    11    12 1   
    22    11    38 1   
    23    11    39 1   
    24    12    13 1   
    25    12    40 1   
    26    13    14 2   
    27    13    15 1   
    28    15    16 1   
    29    15    17 1   
    30    15    41 1   
    31    16    42 1   
    32    17    18 1   
    33    17    19 1   
    34    17    20 1   
    35    18    43 1   
    36    18    44 1   
    37    18    45 1   
    38    19    46 1   
    39    19    47 1   
    40    19    48 1   
    41    20    21 1   
    42    20    49 1   
    43    20    50 1   
    44    21    22 1   
    45    22    23 2   
    46    22    24 1   
    47    24    25 1   
    48    24    26 1   
    49    24    27 1   
    50    25    51 1   
    51    25    52 1   
    52    25    53 1   
    53    26    54 1   
    54    26    55 1   
    55    26    56 1   
    56    27    57 1   
    57    27    58 1   
    58    27    59 1   
@<TRIPOS>SUBSTRUCTURE
     1 168         1 TEMP              0 ****  ****    0 ROOT
