@<TRIPOS>MOLECULE
168
   59    58     1     0     0
SMALL
bcc


@<TRIPOS>ATOM
      1 C2           3.7740     1.2650     6.3500 c3         1 168      -0.156100
      2 C1           2.9500     0.0510     6.6600 c          1 168       0.643100
      3 O1           3.3660    -0.9720     7.1410 o          1 168      -0.528000
      4 OP1          1.6720     0.2350     6.3360 os         1 168      -0.442900
      5 CP2          0.7580    -0.8450     6.5560 c3         1 168       0.123400
      6 CP3         -0.5990    -0.4010     6.0700 c3         1 168       0.102000
      7 NP4         -0.5920    -0.1490     4.6460 ns         1 168      -0.574900
      8 CP5         -1.7160    -0.0750     3.9150 c          1 168       0.669100
      9 OP5         -2.8250    -0.2810     4.3860 o          1 168      -0.598100
     10 CP6         -1.5000     0.2900     2.4610 c3         1 168      -0.182400
     11 CP7         -2.7400     0.0670     1.6100 c3         1 168       0.110000
     12 NP8         -2.4800     0.4530     0.2400 ns         1 168      -0.570900
     13 CP9         -2.7700    -0.2940    -0.8310 c          1 168       0.642100
     14 OP9         -3.3470    -1.3730    -0.7800 o          1 168      -0.604100
     15 CPA         -2.3390     0.2920    -2.1750 c3         1 168       0.075100
     16 OPA         -3.3820     0.1350    -3.1000 oh         1 168      -0.580800
     17 CPB         -0.9930    -0.3030    -2.6790 c3         1 168      -0.067000
     18 CPD          0.0690    -0.2160    -1.5810 c3         1 168      -0.088100
     19 CPE         -1.1530    -1.7600    -3.1240 c3         1 168      -0.088100
     20 CPC         -0.5870     0.5770    -3.8640 c3         1 168       0.147400
     21 OA6          0.6280     0.0690    -4.4120 os         1 168      -0.426900
     22 CT1          1.1650     0.6870    -5.4540 c          1 168       0.645100
     23 OT1          0.6770     1.6700    -5.9560 o          1 168      -0.536000
     24 CT2          2.4450     0.0070    -5.9160 c3         1 168      -0.097000
     25 CT3          3.0030     0.7350    -7.1360 c3         1 168      -0.081433
     26 CT4          3.4740     0.0480    -4.7780 c3         1 168      -0.081433
     27 CT5          2.1400    -1.4510    -6.2820 c3         1 168      -0.081433
     28 H21          4.8080     1.1060     6.6410 hc         1 168       0.070700
     29 H22          3.7340     1.4870     5.2830 hc         1 168       0.070700
     30 H23          3.3830     2.1360     6.8760 hc         1 168       0.070700
     31 HP21         1.0890    -1.7360     6.0190 h1         1 168       0.061700
     32 HP22         0.7020    -1.0840     7.6190 h1         1 168       0.061700
     33 HP31        -1.3060    -1.2010     6.2940 h1         1 168       0.065200
     34 HP32        -0.9280     0.4810     6.6280 h1         1 168       0.065200
     35 HP4          0.2810     0.1080     4.2120 hn         1 168       0.319500
     36 HP61        -1.2010     1.3430     2.4170 hc         1 168       0.059700
     37 HP62        -0.6590    -0.2800     2.0560 hc         1 168       0.059700
     38 HP71        -3.0290    -0.9820     1.6190 h1         1 168       0.076700
     39 HP72        -3.5820     0.6390     2.0040 h1         1 168       0.076700
     40 HP8         -2.0930     1.3710     0.0870 hn         1 168       0.310500
     41 HPA         -2.1960     1.3730    -2.0580 h1         1 168       0.070700
     42 HPA0        -3.6960    -0.7750    -3.0460 ho         1 168       0.429000
     43 HPD1         0.1830     0.8010    -1.2000 hc         1 168       0.043033
     44 HPD2        -0.1720    -0.8650    -0.7390 hc         1 168       0.043033
     45 HPD3         1.0390    -0.5360    -1.9600 hc         1 168       0.043033
     46 HPE1        -1.8480    -1.8620    -3.9590 hc         1 168       0.043033
     47 HPE2        -0.1960    -2.1660    -3.4500 hc         1 168       0.043033
     48 HPE3        -1.5090    -2.3880    -2.3080 hc         1 168       0.043033
     49 HPC1        -1.3650     0.5740    -4.6310 h1         1 168       0.055700
     50 HPC2        -0.4400     1.6090    -3.5310 h1         1 168       0.055700
     51 HT31         3.9160     0.2370    -7.4640 hc         1 168       0.043367
     52 HT32         2.3020     0.7300    -7.9710 hc         1 168       0.043367
     53 HT33         3.2540     1.7730    -6.9130 hc         1 168       0.043367
     54 HT41         3.6970     1.0720    -4.4730 hc         1 168       0.043367
     55 HT42         3.1380    -0.5030    -3.9010 hc         1 168       0.043367
     56 HT43         4.4060    -0.4060    -5.1190 hc         1 168       0.043367
     57 HT51         1.3880    -1.5200    -7.0690 hc         1 168       0.043367
     58 HT52         3.0490    -1.9300    -6.6500 hc         1 168       0.043367
     59 HT53         1.7880    -2.0240    -5.4250 hc         1 168       0.043367
@<TRIPOS>BOND
     1     1     2 1   
     2     1    28 1   
     3     1    29 1   
     4     1    30 1   
     5     2     3 2   
     6     2     4 1   
     7     4     5 1   
     8     5     6 1   
     9     5    31 1   
    10     5    32 1   
    11     6     7 1   
    12     6    33 1   
    13     6    34 1   
    14     7     8 1   
    15     7    35 1   
    16     8     9 2   
    17     8    10 1   
    18    10    11 1   
    19    10    36 1   
    20    10    37 1   
    21    11    12 1   
    22    11    38 1   
    23    11    39 1   
    24    12    13 1   
    25    12    40 1   
    26    13    14 2   
    27    13    15 1   
    28    15    16 1   
    29    15    17 1   
    30    15    41 1   
    31    16    42 1   
    32    17    18 1   
    33    17    19 1   
    34    17    20 1   
    35    18    43 1   
    36    18    44 1   
    37    18    45 1   
    38    19    46 1   
    39    19    47 1   
    40    19    48 1   
    41    20    21 1   
    42    20    49 1   
    43    20    50 1   
    44    21    22 1   
    45    22    23 2   
    46    22    24 1   
    47    24    25 1   
    48    24    26 1   
    49    24    27 1   
    50    25    51 1   
    51    25    52 1   
    52    25    53 1   
    53    26    54 1   
    54    26    55 1   
    55    26    56 1   
    56    27    57 1   
    57    27    58 1   
    58    27    59 1   
@<TRIPOS>SUBSTRUCTURE
     1 168         1 TEMP              0 ****  ****    0 ROOT
