@<TRIPOS>MOLECULE
16A
   62    61     1     0     0
SMALL
No Charge or Current Charge


@<TRIPOS>ATOM
      1 C1          11.9670    -0.4550     0.0030 c3         1 16A      -0.089100
      2 C2          10.6900     0.4070     0.0170 c3         1 16A      -0.074400
      3 C3           9.3940    -0.4320    -0.0020 c3         1 16A      -0.075400
      4 C4           8.1140     0.4330     0.0120 c3         1 16A      -0.074400
      5 C5           6.8170    -0.4060    -0.0070 c3         1 16A      -0.074400
      6 C6           5.5380     0.4590     0.0080 c3         1 16A      -0.074400
      7 C7           4.2410    -0.3800    -0.0120 c3         1 16A      -0.074400
      8 C8           2.9620     0.4850     0.0030 c3         1 16A      -0.074400
      9 C9           1.6650    -0.3540    -0.0160 c3         1 16A      -0.074400
     10 C10          0.3860     0.5110    -0.0020 c3         1 16A      -0.074400
     11 C11         -0.9110    -0.3280    -0.0210 c3         1 16A      -0.073400
     12 C12         -2.1900     0.5370    -0.0060 c3         1 16A      -0.074400
     13 C13         -3.4870    -0.3020    -0.0250 c3         1 16A      -0.074400
     14 C14         -4.7660     0.5640    -0.0100 c3         1 16A      -0.074400
     15 C15         -6.0610    -0.2750    -0.0280 c3         1 16A      -0.100400
     16 C16         -7.3290     0.6050    -0.0140 c3         1 16A       0.099600
     17 N1          -8.6910    -0.1080    -0.0290 n4         1 16A      -0.496000
     18 C17         -8.8430    -1.0050     1.2090 c3         1 16A       0.074567
     19 C18         -9.8010     0.9520    -0.0110 c3         1 16A       0.074567
     20 C19         -8.8390    -0.9580    -1.3010 c3         1 16A       0.074567
     21 H11         12.8590     0.1820     0.0180 hc         1 16A       0.033033
     22 H12         12.0010    -1.1130     0.8800 hc         1 16A       0.033033
     23 H13         12.0050    -1.0780    -0.8990 hc         1 16A       0.033033
     24 H21         10.6990     1.0420     0.9120 hc         1 16A       0.036700
     25 H22         10.7030     1.0770    -0.8520 hc         1 16A       0.036700
     26 H31          9.3890    -1.0670    -0.8960 hc         1 16A       0.037200
     27 H32          9.3850    -1.1020     0.8670 hc         1 16A       0.037200
     28 H41          8.1190     1.0690     0.9070 hc         1 16A       0.037700
     29 H42          8.1220     1.1030    -0.8570 hc         1 16A       0.037700
     30 H51          6.8130    -1.0410    -0.9010 hc         1 16A       0.037700
     31 H52          6.8090    -1.0760     0.8620 hc         1 16A       0.037700
     32 H61          5.5430     1.0940     0.9020 hc         1 16A       0.037700
     33 H62          5.5460     1.1290    -0.8610 hc         1 16A       0.037700
     34 H71          4.2370    -1.0150    -0.9060 hc         1 16A       0.037700
     35 H72          4.2330    -1.0500     0.8570 hc         1 16A       0.037700
     36 H81          2.9670     1.1200     0.8980 hc         1 16A       0.038700
     37 H82          2.9700     1.1550    -0.8660 hc         1 16A       0.038700
     38 H91          1.6600    -0.9890    -0.9110 hc         1 16A       0.038700
     39 H92          1.6570    -1.0240     0.8530 hc         1 16A       0.038700
     40 H101         0.3910     1.1460     0.8930 hc         1 16A       0.039700
     41 H102         0.3940     1.1810    -0.8710 hc         1 16A       0.039700
     42 H111        -0.9160    -0.9630    -0.9150 hc         1 16A       0.040700
     43 H112        -0.9190    -0.9980     0.8480 hc         1 16A       0.040700
     44 H121        -2.1850     1.1730     0.8890 hc         1 16A       0.042700
     45 H122        -2.1820     1.2070    -0.8750 hc         1 16A       0.042700
     46 H131        -3.4920    -0.9370    -0.9190 hc         1 16A       0.044700
     47 H132        -3.4950    -0.9720     0.8440 hc         1 16A       0.044700
     48 H141        -4.7620     1.2000     0.8850 hc         1 16A       0.051700
     49 H142        -4.7590     1.2340    -0.8790 hc         1 16A       0.051700
     50 H151        -6.0650    -0.9080    -0.9230 hc         1 16A       0.063700
     51 H152        -6.0680    -0.9420     0.8410 hc         1 16A       0.063700
     52 H161        -7.3020     1.2320     0.8800 hx         1 16A       0.092700
     53 H162        -7.2990     1.2660    -0.8830 hx         1 16A       0.092700
     54 H171        -8.7280    -0.4000     2.1100 hx         1 16A       0.097367
     55 H172        -9.8320    -1.4680     1.2000 hx         1 16A       0.097367
     56 H173        -8.0770    -1.7830     1.1890 hx         1 16A       0.097367
     57 H181        -9.7050     1.5910    -0.8910 hx         1 16A       0.097367
     58 H182       -10.7740     0.4560    -0.0220 hx         1 16A       0.097367
     59 H183        -9.7080     1.5570     0.8930 hx         1 16A       0.097367
     60 H191        -8.0730    -1.7360    -1.3080 hx         1 16A       0.097367
     61 H192        -9.8280    -1.4200    -1.3130 hx         1 16A       0.097367
     62 H193        -8.7220    -0.3180    -2.1780 hx         1 16A       0.097367
@<TRIPOS>BOND
     1     1     2 1   
     2     1    21 1   
     3     1    22 1   
     4     1    23 1   
     5     2     3 1   
     6     2    24 1   
     7     2    25 1   
     8     3     4 1   
     9     3    26 1   
    10     3    27 1   
    11     4     5 1   
    12     4    28 1   
    13     4    29 1   
    14     5     6 1   
    15     5    30 1   
    16     5    31 1   
    17     6     7 1   
    18     6    32 1   
    19     6    33 1   
    20     7     8 1   
    21     7    34 1   
    22     7    35 1   
    23     8     9 1   
    24     8    36 1   
    25     8    37 1   
    26     9    10 1   
    27     9    38 1   
    28     9    39 1   
    29    10    11 1   
    30    10    40 1   
    31    10    41 1   
    32    11    12 1   
    33    11    42 1   
    34    11    43 1   
    35    12    13 1   
    36    12    44 1   
    37    12    45 1   
    38    13    14 1   
    39    13    46 1   
    40    13    47 1   
    41    14    15 1   
    42    14    48 1   
    43    14    49 1   
    44    15    16 1   
    45    15    50 1   
    46    15    51 1   
    47    16    17 1   
    48    16    52 1   
    49    16    53 1   
    50    17    18 1   
    51    17    19 1   
    52    17    20 1   
    53    18    54 1   
    54    18    55 1   
    55    18    56 1   
    56    19    57 1   
    57    19    58 1   
    58    19    59 1   
    59    20    60 1   
    60    20    61 1   
    61    20    62 1   
@<TRIPOS>SUBSTRUCTURE
     1 16A         1 TEMP              0 ****  ****    0 ROOT
