@<TRIPOS>MOLECULE
16A
   62    61     1     0     0
SMALL
bcc


@<TRIPOS>ATOM
      1 C1          11.8000    -0.4730    -0.0040 c3         1 16A      -0.089100
      2 C2          10.5510     0.3980     0.0220 c3         1 16A      -0.074400
      3 C3           9.2640    -0.4170    -0.0020 c3         1 16A      -0.075400
      4 C4           8.0030     0.4380     0.0200 c3         1 16A      -0.074400
      5 C5           6.7200    -0.3830    -0.0100 c3         1 16A      -0.074400
      6 C6           5.4570     0.4680     0.0150 c3         1 16A      -0.074400
      7 C7           4.1760    -0.3560    -0.0130 c3         1 16A      -0.074400
      8 C8           2.9110     0.4920     0.0060 c3         1 16A      -0.074400
      9 C9           1.6320    -0.3360    -0.0180 c3         1 16A      -0.074400
     10 C10          0.3650     0.5100    -0.0010 c3         1 16A      -0.074400
     11 C11         -0.9120    -0.3200    -0.0240 c3         1 16A      -0.073400
     12 C12         -2.1800     0.5250    -0.0070 c3         1 16A      -0.074400
     13 C13         -3.4540    -0.3100    -0.0290 c3         1 16A      -0.074400
     14 C14         -4.7200     0.5370    -0.0160 c3         1 16A      -0.074400
     15 C15         -5.9870    -0.3150    -0.0320 c3         1 16A      -0.100400
     16 C16         -7.2060     0.5860    -0.0210 c3         1 16A       0.127800
     17 N1          -8.5410    -0.1140    -0.0280 n4         1 16A      -0.608800
     18 C17         -8.7010    -0.9680     1.1800 c3         1 16A       0.102767
     19 C18         -9.6020     0.9300    -0.0170 c3         1 16A       0.102767
     20 C19         -8.7010    -0.9430    -1.2530 c3         1 16A       0.102767
     21 H11         12.7110     0.1260     0.0130 hc         1 16A       0.033033
     22 H12         11.8290    -1.1430     0.8580 hc         1 16A       0.033033
     23 H13         11.8280    -1.0920    -0.9030 hc         1 16A       0.033033
     24 H21         10.5620     1.0310     0.9150 hc         1 16A       0.036700
     25 H22         10.5620     1.0820    -0.8330 hc         1 16A       0.036700
     26 H31          9.2560    -1.0520    -0.8960 hc         1 16A       0.037200
     27 H32          9.2540    -1.1020     0.8540 hc         1 16A       0.037200
     28 H41          8.0090     1.0700     0.9160 hc         1 16A       0.037700
     29 H42          8.0150     1.1240    -0.8340 hc         1 16A       0.037700
     30 H51          6.7140    -1.0140    -0.9070 hc         1 16A       0.037700
     31 H52          6.7100    -1.0720     0.8430 hc         1 16A       0.037700
     32 H61          5.4630     1.0990     0.9120 hc         1 16A       0.037700
     33 H62          5.4660     1.1560    -0.8380 hc         1 16A       0.037700
     34 H71          4.1730    -0.9910    -0.9070 hc         1 16A       0.037700
     35 H72          4.1660    -1.0400     0.8430 hc         1 16A       0.037700
     36 H81          2.9140     1.1290     0.8970 hc         1 16A       0.038700
     37 H82          2.9180     1.1740    -0.8530 hc         1 16A       0.038700
     38 H91          1.6300    -0.9750    -0.9080 hc         1 16A       0.038700
     39 H92          1.6250    -1.0160     0.8420 hc         1 16A       0.038700
     40 H101         0.3670     1.1490     0.8900 hc         1 16A       0.039700
     41 H102         0.3720     1.1900    -0.8600 hc         1 16A       0.039700
     42 H111        -0.9130    -0.9590    -0.9140 hc         1 16A       0.040700
     43 H112        -0.9180    -1.0000     0.8360 hc         1 16A       0.040700
     44 H121        -2.1790     1.1630     0.8830 hc         1 16A       0.042700
     45 H122        -2.1750     1.2040    -0.8670 hc         1 16A       0.042700
     46 H131        -3.4550    -0.9500    -0.9190 hc         1 16A       0.044700
     47 H132        -3.4600    -0.9860     0.8330 hc         1 16A       0.044700
     48 H141        -4.7210     1.1770     0.8730 hc         1 16A       0.051700
     49 H142        -4.7190     1.2080    -0.8800 hc         1 16A       0.051700
     50 H151        -5.9760    -0.9480    -0.9210 hc         1 16A       0.063700
     51 H152        -5.9790    -0.9750     0.8380 hc         1 16A       0.063700
     52 H161        -7.2030     1.2190     0.8680 hx         1 16A       0.092700
     53 H162        -7.2040     1.2380    -0.8950 hx         1 16A       0.092700
     54 H171        -8.5470    -0.3600     2.0680 hx         1 16A       0.097367
     55 H172        -9.7080    -1.3770     1.1880 hx         1 16A       0.097367
     56 H173        -7.9850    -1.7830     1.1590 hx         1 16A       0.097367
     57 H181        -9.4950     1.5570    -0.8990 hx         1 16A       0.097367
     58 H182       -10.5760     0.4480    -0.0240 hx         1 16A       0.097367
     59 H183        -9.4990     1.5360     0.8790 hx         1 16A       0.097367
     60 H191        -7.9820    -1.7550    -1.2510 hx         1 16A       0.097367
     61 H192        -9.7070    -1.3560    -1.2680 hx         1 16A       0.097367
     62 H193        -8.5520    -0.3160    -2.1290 hx         1 16A       0.097367
@<TRIPOS>BOND
     1     1     2 1   
     2     1    21 1   
     3     1    22 1   
     4     1    23 1   
     5     2     3 1   
     6     2    24 1   
     7     2    25 1   
     8     3     4 1   
     9     3    26 1   
    10     3    27 1   
    11     4     5 1   
    12     4    28 1   
    13     4    29 1   
    14     5     6 1   
    15     5    30 1   
    16     5    31 1   
    17     6     7 1   
    18     6    32 1   
    19     6    33 1   
    20     7     8 1   
    21     7    34 1   
    22     7    35 1   
    23     8     9 1   
    24     8    36 1   
    25     8    37 1   
    26     9    10 1   
    27     9    38 1   
    28     9    39 1   
    29    10    11 1   
    30    10    40 1   
    31    10    41 1   
    32    11    12 1   
    33    11    42 1   
    34    11    43 1   
    35    12    13 1   
    36    12    44 1   
    37    12    45 1   
    38    13    14 1   
    39    13    46 1   
    40    13    47 1   
    41    14    15 1   
    42    14    48 1   
    43    14    49 1   
    44    15    16 1   
    45    15    50 1   
    46    15    51 1   
    47    16    17 1   
    48    16    52 1   
    49    16    53 1   
    50    17    18 1   
    51    17    19 1   
    52    17    20 1   
    53    18    54 1   
    54    18    55 1   
    55    18    56 1   
    56    19    57 1   
    57    19    58 1   
    58    19    59 1   
    59    20    60 1   
    60    20    61 1   
    61    20    62 1   
@<TRIPOS>SUBSTRUCTURE
     1 16A         1 TEMP              0 ****  ****    0 ROOT
