@<TRIPOS>MOLECULE
16C
  105   104     1     0     0
SMALL
No Charge or Current Charge


@<TRIPOS>ATOM
      1 O19         -1.8630     4.8180     1.6190 o          1 16C      -0.608100
      2 C19         -1.2910     4.9100     0.5420 c          1 16C       0.600100
      3 N2          -1.1830     6.0980    -0.1440 ns         1 16C      -0.504900
      4 C2          -1.7760     7.3830     0.2780 c3         1 16C       0.080700
      5 C1          -0.6720     8.4590     0.4660 c3         1 16C       0.151600
      6 O1           0.0960     8.6310    -0.7400 oh         1 16C      -0.669000
      7 C3          -2.9120     7.8400    -0.6900 c3         1 16C       0.194500
      8 C4          -3.8890     6.7330    -1.0320 c2         1 16C      -0.258200
      9 C5          -4.6160     6.0220    -0.1540 c2         1 16C      -0.198200
     10 C6          -5.5250     4.8670    -0.5120 c3         1 16C      -0.043200
     11 C7          -4.9050     3.5130    -0.1100 c3         1 16C      -0.072400
     12 C8          -5.7920     2.3020    -0.4700 c3         1 16C      -0.075400
     13 C9          -5.1580     0.9520    -0.0700 c3         1 16C      -0.073400
     14 C10         -6.0410    -0.2620    -0.4330 c3         1 16C      -0.075400
     15 C11         -5.4070    -1.6120    -0.0310 c3         1 16C      -0.073400
     16 C12         -6.2900    -2.8260    -0.3940 c3         1 16C      -0.075400
     17 C13         -5.6580    -4.1760     0.0100 c3         1 16C      -0.073400
     18 C14         -6.5420    -5.3890    -0.3540 c3         1 16C      -0.075400
     19 C15         -5.9120    -6.7400     0.0510 c3         1 16C      -0.074400
     20 C16         -6.7950    -7.9530    -0.3140 c3         1 16C      -0.076400
     21 C17         -6.1660    -9.3030     0.0920 c3         1 16C      -0.074400
     22 C18         -7.0470   -10.5130    -0.2730 c3         1 16C      -0.088100
     23 O3          -3.6610     8.9100    -0.1080 oh         1 16C      -0.648000
     24 C20         -0.6660     3.7000    -0.1600 c3         1 16C      -0.156400
     25 C21          0.6470     3.2580     0.5270 c3         1 16C      -0.067400
     26 C22          1.3040     2.0380    -0.1560 c3         1 16C      -0.075400
     27 C23          2.6140     1.5940     0.5300 c3         1 16C      -0.074400
     28 C24          3.2730     0.3770    -0.1550 c3         1 16C      -0.074400
     29 C25          4.5830    -0.0670     0.5320 c3         1 16C      -0.074400
     30 C26          5.2450    -1.2820    -0.1550 c3         1 16C      -0.074400
     31 C27          6.5550    -1.7240     0.5330 c3         1 16C      -0.074400
     32 C28          7.2190    -2.9370    -0.1540 c3         1 16C      -0.074400
     33 C29          8.5290    -3.3790     0.5350 c3         1 16C      -0.074400
     34 C30          9.1950    -4.5900    -0.1530 c3         1 16C      -0.074400
     35 C31         10.5050    -5.0310     0.5370 c3         1 16C      -0.074400
     36 C32         11.1740    -6.2410    -0.1510 c3         1 16C      -0.075400
     37 C33         12.4840    -6.6800     0.5390 c3         1 16C      -0.075400
     38 C34         13.1530    -7.8870    -0.1470 c3         1 16C      -0.088100
     39 HN2         -0.6650     6.0800    -1.0140 hn         1 16C       0.323500
     40 H2          -2.2420     7.2380     1.2610 h1         1 16C       0.084700
     41 H11         -1.1340     9.4080     0.7670 h1         1 16C       0.034200
     42 H12         -0.0140     8.1420     1.2860 h1         1 16C       0.034200
     43 HO1          0.7820     9.3090    -0.5490 ho         1 16C       0.448000
     44 H3          -2.4390     8.1780    -1.6250 h1         1 16C       0.092700
     45 H4          -3.9350     6.5030    -2.0980 ha         1 16C       0.175000
     46 H5          -4.5560     6.2330     0.9160 ha         1 16C       0.170000
     47 H61         -6.4960     4.9880    -0.0160 hc         1 16C       0.044200
     48 H62         -5.7230     4.8590    -1.5910 hc         1 16C       0.044200
     49 H71         -3.9330     3.4060    -0.6070 hc         1 16C       0.042700
     50 H72         -4.7130     3.5120     0.9710 hc         1 16C       0.042700
     51 H81         -6.7640     2.4060     0.0290 hc         1 16C       0.036200
     52 H82         -5.9840     2.3040    -1.5500 hc         1 16C       0.036200
     53 H91         -4.1840     0.8500    -0.5670 hc         1 16C       0.038700
     54 H92         -4.9680     0.9490     1.0100 hc         1 16C       0.038700
     55 H101        -7.0140    -0.1600     0.0620 hc         1 16C       0.036700
     56 H102        -6.2290    -0.2600    -1.5140 hc         1 16C       0.036700
     57 H111        -4.4330    -1.7140    -0.5260 hc         1 16C       0.037700
     58 H112        -5.2190    -1.6140     1.0500 hc         1 16C       0.037700
     59 H121        -7.2650    -2.7220     0.0990 hc         1 16C       0.036200
     60 H122        -6.4770    -2.8250    -1.4760 hc         1 16C       0.036200
     61 H131        -4.6840    -4.2790    -0.4840 hc         1 16C       0.037200
     62 H132        -5.4720    -4.1770     1.0910 hc         1 16C       0.037200
     63 H141        -7.5170    -5.2850     0.1390 hc         1 16C       0.036700
     64 H142        -6.7280    -5.3880    -1.4350 hc         1 16C       0.036700
     65 H151        -4.9360    -6.8430    -0.4400 hc         1 16C       0.036700
     66 H152        -5.7270    -6.7410     1.1330 hc         1 16C       0.036700
     67 H161        -7.7710    -7.8480     0.1770 hc         1 16C       0.036700
     68 H162        -6.9790    -7.9520    -1.3960 hc         1 16C       0.036700
     69 H171        -5.1900    -9.4120    -0.3990 hc         1 16C       0.036700
     70 H172        -5.9830    -9.3090     1.1730 hc         1 16C       0.036700
     71 H181        -6.5600   -11.4470     0.0330 hc         1 16C       0.031367
     72 H182        -8.0190   -10.4520     0.2310 hc         1 16C       0.031367
     73 H183        -7.2190   -10.5560    -1.3550 hc         1 16C       0.031367
     74 HO3         -4.5420     8.8880    -0.5400 ho         1 16C       0.439000
     75 H201        -0.4460     3.9450    -1.2060 hc         1 16C       0.056200
     76 H202        -1.3770     2.8660    -0.1180 hc         1 16C       0.056200
     77 H211         0.4420     3.0160     1.5770 hc         1 16C       0.053700
     78 H212         1.3540     4.0980     0.5250 hc         1 16C       0.053700
     79 H221         1.5120     2.2820    -1.2060 hc         1 16C       0.036200
     80 H222         0.5950     1.2000    -0.1560 hc         1 16C       0.036200
     81 H231         2.4060     1.3480     1.5790 hc         1 16C       0.039700
     82 H232         3.3220     2.4330     0.5320 hc         1 16C       0.039700
     83 H241         3.4810     0.6230    -1.2040 hc         1 16C       0.037200
     84 H242         2.5650    -0.4620    -0.1570 hc         1 16C       0.037200
     85 H251         4.3740    -0.3150     1.5800 hc         1 16C       0.037700
     86 H252         5.2890     0.7730     0.5360 hc         1 16C       0.037700
     87 H261         5.4540    -1.0330    -1.2030 hc         1 16C       0.037200
     88 H262         4.5390    -2.1220    -0.1590 hc         1 16C       0.037200
     89 H271         6.3450    -1.9740     1.5810 hc         1 16C       0.037200
     90 H272         7.2600    -0.8840     0.5400 hc         1 16C       0.037200
     91 H281         7.4300    -2.6870    -1.2010 hc         1 16C       0.036700
     92 H282         6.5140    -3.7780    -0.1610 hc         1 16C       0.036700
     93 H291         8.3170    -3.6310     1.5820 hc         1 16C       0.037200
     94 H292         9.2330    -2.5370     0.5440 hc         1 16C       0.037200
     95 H301         9.4070    -4.3390    -1.2000 hc         1 16C       0.036700
     96 H302         8.4920    -5.4320    -0.1610 hc         1 16C       0.036700
     97 H311        10.2930    -5.2840     1.5840 hc         1 16C       0.036700
     98 H312        11.2080    -4.1890     0.5470 hc         1 16C       0.036700
     99 H321        11.3860    -5.9890    -1.1980 hc         1 16C       0.036700
    100 H322        10.4720    -7.0840    -0.1600 hc         1 16C       0.036700
    101 H331        12.2760    -6.9360     1.5860 hc         1 16C       0.036700
    102 H332        13.1890    -5.8400     0.5490 hc         1 16C       0.036700
    103 H341        14.0760    -8.1610     0.3770 hc         1 16C       0.031367
    104 H342        12.4840    -8.7560    -0.1420 hc         1 16C       0.031367
    105 H343        13.4060    -7.6510    -1.1880 hc         1 16C       0.031367
@<TRIPOS>BOND
     1     1     2 2   
     2     2     3 1   
     3     2    24 1   
     4     3     4 1   
     5     3    39 1   
     6     4     5 1   
     7     4     7 1   
     8     4    40 1   
     9     5     6 1   
    10     5    41 1   
    11     5    42 1   
    12     6    43 1   
    13     7     8 1   
    14     7    23 1   
    15     7    44 1   
    16     8     9 2   
    17     8    45 1   
    18     9    10 1   
    19     9    46 1   
    20    10    11 1   
    21    10    47 1   
    22    10    48 1   
    23    11    12 1   
    24    11    49 1   
    25    11    50 1   
    26    12    13 1   
    27    12    51 1   
    28    12    52 1   
    29    13    14 1   
    30    13    53 1   
    31    13    54 1   
    32    14    15 1   
    33    14    55 1   
    34    14    56 1   
    35    15    16 1   
    36    15    57 1   
    37    15    58 1   
    38    16    17 1   
    39    16    59 1   
    40    16    60 1   
    41    17    18 1   
    42    17    61 1   
    43    17    62 1   
    44    18    19 1   
    45    18    63 1   
    46    18    64 1   
    47    19    20 1   
    48    19    65 1   
    49    19    66 1   
    50    20    21 1   
    51    20    67 1   
    52    20    68 1   
    53    21    22 1   
    54    21    69 1   
    55    21    70 1   
    56    22    71 1   
    57    22    72 1   
    58    22    73 1   
    59    23    74 1   
    60    24    25 1   
    61    24    75 1   
    62    24    76 1   
    63    25    26 1   
    64    25    77 1   
    65    25    78 1   
    66    26    27 1   
    67    26    79 1   
    68    26    80 1   
    69    27    28 1   
    70    27    81 1   
    71    27    82 1   
    72    28    29 1   
    73    28    83 1   
    74    28    84 1   
    75    29    30 1   
    76    29    85 1   
    77    29    86 1   
    78    30    31 1   
    79    30    87 1   
    80    30    88 1   
    81    31    32 1   
    82    31    89 1   
    83    31    90 1   
    84    32    33 1   
    85    32    91 1   
    86    32    92 1   
    87    33    34 1   
    88    33    93 1   
    89    33    94 1   
    90    34    35 1   
    91    34    95 1   
    92    34    96 1   
    93    35    36 1   
    94    35    97 1   
    95    35    98 1   
    96    36    37 1   
    97    36    99 1   
    98    36   100 1   
    99    37    38 1   
   100    37   101 1   
   101    37   102 1   
   102    38   103 1   
   103    38   104 1   
   104    38   105 1   
@<TRIPOS>SUBSTRUCTURE
     1 16C         1 TEMP              0 ****  ****    0 ROOT
