@<TRIPOS>MOLECULE
16C
  105   104     1     0     0
SMALL
bcc


@<TRIPOS>ATOM
      1 O19         -0.6510     4.0090     1.3100 o          1 16C      -0.608100
      2 C19         -0.1180     4.6630     0.4240 c          1 16C       0.667100
      3 N2          -0.5130     5.9060     0.0900 ns         1 16C      -0.571900
      4 C2          -1.6250     6.5980     0.7030 c3         1 16C       0.080700
      5 C1          -1.1630     7.9290     1.2720 c3         1 16C       0.128400
      6 O1          -0.6760     8.7270     0.2150 oh         1 16C      -0.606800
      7 C3          -2.8000     6.7460    -0.2940 c3         1 16C       0.171300
      8 C4          -3.2050     5.4140    -0.8590 c2         1 16C      -0.208200
      9 C5          -4.4260     4.8920    -0.8260 c2         1 16C      -0.148200
     10 C6          -4.7850     3.5570    -1.3980 c3         1 16C      -0.043200
     11 C7          -5.3600     2.5970    -0.3540 c3         1 16C      -0.072400
     12 C8          -5.7120     1.2400    -0.9490 c3         1 16C      -0.075400
     13 C9          -6.3920     0.2920     0.0320 c3         1 16C      -0.073400
     14 C10         -6.7020    -1.0630    -0.5910 c3         1 16C      -0.075400
     15 C11         -7.4630    -2.0130     0.3250 c3         1 16C      -0.073400
     16 C12         -7.7590    -3.3520    -0.3410 c3         1 16C      -0.075400
     17 C13         -8.5710    -4.3100     0.5190 c3         1 16C      -0.073400
     18 C14         -8.8630    -5.6290    -0.1880 c3         1 16C      -0.075400
     19 C15         -9.6980    -6.5990     0.6370 c3         1 16C      -0.074400
     20 C16         -9.9890    -7.9030    -0.0960 c3         1 16C      -0.076400
     21 C17        -10.8320    -8.8820     0.7110 c3         1 16C      -0.074400
     22 C18        -11.1150   -10.1750    -0.0420 c3         1 16C      -0.088100
     23 O3          -3.8640     7.4470     0.2990 oh         1 16C      -0.585800
     24 C20          1.0190     4.1040    -0.4050 c3         1 16C      -0.156400
     25 C21          2.0330     3.3250     0.4250 c3         1 16C      -0.067400
     26 C22          3.0750     2.6240    -0.4340 c3         1 16C      -0.075400
     27 C23          4.0930     1.8470     0.3920 c3         1 16C      -0.074400
     28 C24          5.1100     1.0920    -0.4540 c3         1 16C      -0.074400
     29 C25          6.1210     0.3140     0.3790 c3         1 16C      -0.074400
     30 C26          7.1280    -0.4620    -0.4610 c3         1 16C      -0.074400
     31 C27          8.1310    -1.2470     0.3760 c3         1 16C      -0.074400
     32 C28          9.1320    -2.0340    -0.4610 c3         1 16C      -0.074400
     33 C29         10.1270    -2.8250     0.3790 c3         1 16C      -0.074400
     34 C30         11.1250    -3.6190    -0.4550 c3         1 16C      -0.074400
     35 C31         12.1130    -4.4170     0.3860 c3         1 16C      -0.074400
     36 C32         13.1070    -5.2170    -0.4470 c3         1 16C      -0.075400
     37 C33         14.0870    -6.0260     0.3950 c3         1 16C      -0.075400
     38 C34         15.0730    -6.8250    -0.4460 c3         1 16C      -0.088100
     39 HN2          0.0000     6.3970    -0.6250 hn         1 16C       0.323500
     40 H2          -1.9660     5.9820     1.5390 h1         1 16C       0.084700
     41 H11         -1.9960     8.4100     1.7950 h1         1 16C       0.034200
     42 H12         -0.3850     7.7280     2.0180 h1         1 16C       0.034200
     43 HO1         -0.2870     9.5220     0.5880 ho         1 16C       0.409000
     44 H3          -2.4600     7.3740    -1.1260 h1         1 16C       0.092700
     45 H4          -2.4130     4.8590    -1.3520 ha         1 16C       0.125000
     46 H5          -5.2410     5.4390    -0.3570 ha         1 16C       0.120000
     47 H61         -5.5310     3.6890    -2.1900 hc         1 16C       0.044200
     48 H62         -3.9080     3.1060    -1.8710 hc         1 16C       0.044200
     49 H71         -4.6380     2.4700     0.4580 hc         1 16C       0.042700
     50 H72         -6.2520     3.0450     0.0960 hc         1 16C       0.042700
     51 H81         -6.3690     1.3840    -1.8140 hc         1 16C       0.036200
     52 H82         -4.8020     0.7700    -1.3380 hc         1 16C       0.036200
     53 H91         -5.7580     0.1560     0.9150 hc         1 16C       0.038700
     54 H92         -7.3200     0.7500     0.3920 hc         1 16C       0.038700
     55 H101        -7.2850    -0.9100    -1.5060 hc         1 16C       0.036700
     56 H102        -5.7670    -1.5380    -0.9080 hc         1 16C       0.036700
     57 H111        -6.8930    -2.1790     1.2460 hc         1 16C       0.037700
     58 H112        -8.4050    -1.5440     0.6330 hc         1 16C       0.037700
     59 H121        -8.2950    -3.1710    -1.2800 hc         1 16C       0.036200
     60 H122        -6.8140    -3.8300    -0.6250 hc         1 16C       0.036200
     61 H131        -8.0380    -4.5080     1.4560 hc         1 16C       0.037200
     62 H132        -9.5150    -3.8330     0.8040 hc         1 16C       0.037200
     63 H141        -9.3800    -5.4210    -1.1320 hc         1 16C       0.036700
     64 H142        -7.9170    -6.1080    -0.4640 hc         1 16C       0.036700
     65 H151        -9.1810    -6.8180     1.5780 hc         1 16C       0.036700
     66 H152       -10.6430    -6.1200     0.9160 hc         1 16C       0.036700
     67 H161       -10.4990    -7.6790    -1.0400 hc         1 16C       0.036700
     68 H162        -9.0430    -8.3820    -0.3730 hc         1 16C       0.036700
     69 H171       -10.3200    -9.1100     1.6510 hc         1 16C       0.036700
     70 H172       -11.7760    -8.4030     0.9890 hc         1 16C       0.036700
     71 H181       -11.7180   -10.8640     0.5510 hc         1 16C       0.031367
     72 H182       -11.6550    -9.9780    -0.9710 hc         1 16C       0.031367
     73 H183       -10.1880   -10.6880    -0.3060 hc         1 16C       0.031367
     74 HO3         -4.2020     6.9250     1.0360 ho         1 16C       0.400000
     75 H201         1.5180     4.8930    -0.9720 hc         1 16C       0.056200
     76 H202         0.5670     3.4350    -1.1460 hc         1 16C       0.056200
     77 H211         1.5100     2.5840     1.0340 hc         1 16C       0.053700
     78 H212         2.5310     4.0050     1.1240 hc         1 16C       0.053700
     79 H221         3.5970     3.3570    -1.0600 hc         1 16C       0.036200
     80 H222         2.5700     1.9390    -1.1250 hc         1 16C       0.036200
     81 H231         3.5660     1.1380     1.0400 hc         1 16C       0.039700
     82 H232         4.6180     2.5370     1.0620 hc         1 16C       0.039700
     83 H241         5.6410     1.7970    -1.1040 hc         1 16C       0.037200
     84 H242         4.5830     0.4020    -1.1220 hc         1 16C       0.037200
     85 H251         5.5880    -0.3820     1.0370 hc         1 16C       0.037700
     86 H252         6.6560     1.0050     1.0400 hc         1 16C       0.037700
     87 H261         7.6660     0.2320    -1.1170 hc         1 16C       0.037200
     88 H262         6.5930    -1.1510    -1.1240 hc         1 16C       0.037200
     89 H271         7.5910    -1.9350     1.0360 hc         1 16C       0.037200
     90 H272         8.6720    -0.5570     1.0340 hc         1 16C       0.037200
     91 H281         9.6770    -1.3470    -1.1180 hc         1 16C       0.036700
     92 H282         8.5910    -2.7200    -1.1220 hc         1 16C       0.036700
     93 H291         9.5810    -3.5100     1.0380 hc         1 16C       0.037200
     94 H292        10.6710    -2.1390     1.0390 hc         1 16C       0.037200
     95 H301        11.6750    -2.9350    -1.1110 hc         1 16C       0.036700
     96 H302        10.5810    -4.3020    -1.1180 hc         1 16C       0.036700
     97 H311        11.5610    -5.0990     1.0430 hc         1 16C       0.036700
     98 H312        12.6590    -3.7360     1.0480 hc         1 16C       0.036700
     99 H321        13.6660    -4.5360    -1.0990 hc         1 16C       0.036700
    100 H322        12.5610    -5.8940    -1.1130 hc         1 16C       0.036700
    101 H331        13.5280    -6.7030     1.0480 hc         1 16C       0.036700
    102 H332        14.6360    -5.3500     1.0590 hc         1 16C       0.036700
    103 H341        15.7520    -7.4080     0.1770 hc         1 16C       0.031367
    104 H342        14.5550    -7.5200    -1.1090 hc         1 16C       0.031367
    105 H343        15.6810    -6.1680    -1.0700 hc         1 16C       0.031367
@<TRIPOS>BOND
     1     1     2 2   
     2     2     3 1   
     3     2    24 1   
     4     3     4 1   
     5     3    39 1   
     6     4     5 1   
     7     4     7 1   
     8     4    40 1   
     9     5     6 1   
    10     5    41 1   
    11     5    42 1   
    12     6    43 1   
    13     7     8 1   
    14     7    23 1   
    15     7    44 1   
    16     8     9 2   
    17     8    45 1   
    18     9    10 1   
    19     9    46 1   
    20    10    11 1   
    21    10    47 1   
    22    10    48 1   
    23    11    12 1   
    24    11    49 1   
    25    11    50 1   
    26    12    13 1   
    27    12    51 1   
    28    12    52 1   
    29    13    14 1   
    30    13    53 1   
    31    13    54 1   
    32    14    15 1   
    33    14    55 1   
    34    14    56 1   
    35    15    16 1   
    36    15    57 1   
    37    15    58 1   
    38    16    17 1   
    39    16    59 1   
    40    16    60 1   
    41    17    18 1   
    42    17    61 1   
    43    17    62 1   
    44    18    19 1   
    45    18    63 1   
    46    18    64 1   
    47    19    20 1   
    48    19    65 1   
    49    19    66 1   
    50    20    21 1   
    51    20    67 1   
    52    20    68 1   
    53    21    22 1   
    54    21    69 1   
    55    21    70 1   
    56    22    71 1   
    57    22    72 1   
    58    22    73 1   
    59    23    74 1   
    60    24    25 1   
    61    24    75 1   
    62    24    76 1   
    63    25    26 1   
    64    25    77 1   
    65    25    78 1   
    66    26    27 1   
    67    26    79 1   
    68    26    80 1   
    69    27    28 1   
    70    27    81 1   
    71    27    82 1   
    72    28    29 1   
    73    28    83 1   
    74    28    84 1   
    75    29    30 1   
    76    29    85 1   
    77    29    86 1   
    78    30    31 1   
    79    30    87 1   
    80    30    88 1   
    81    31    32 1   
    82    31    89 1   
    83    31    90 1   
    84    32    33 1   
    85    32    91 1   
    86    32    92 1   
    87    33    34 1   
    88    33    93 1   
    89    33    94 1   
    90    34    35 1   
    91    34    95 1   
    92    34    96 1   
    93    35    36 1   
    94    35    97 1   
    95    35    98 1   
    96    36    37 1   
    97    36    99 1   
    98    36   100 1   
    99    37    38 1   
   100    37   101 1   
   101    37   102 1   
   102    38   103 1   
   103    38   104 1   
   104    38   105 1   
@<TRIPOS>SUBSTRUCTURE
     1 16C         1 TEMP              0 ****  ****    0 ROOT
