@<TRIPOS>MOLECULE
16D
   24    23     1     0     0
SMALL
No Charge or Current Charge


@<TRIPOS>ATOM
      1 N1          -0.2360    -0.0260     4.4490 n8         1 16D      -0.995200
      2 C1           0.5570    -0.0120     3.2070 c3         1 16D       0.149800
      3 C2          -0.3470    -0.0160     1.9570 c3         1 16D      -0.078400
      4 C3           0.4550    -0.0040     0.6360 c3         1 16D      -0.074400
      5 C4          -0.4440    -0.0090    -0.6200 c3         1 16D      -0.074400
      6 C5           0.3580     0.0030    -1.9400 c3         1 16D      -0.078400
      7 C6          -0.5450    -0.0020    -3.1900 c3         1 16D       0.149800
      8 N2           0.2480     0.0070    -4.4330 n8         1 16D      -0.995200
      9 HN11         0.4010     0.0410     5.2530 hn         1 16D       0.390500
     10 HN12        -0.7850     0.8400     4.5040 hn         1 16D       0.390500
     11 H11          1.2080    -0.8970     3.1960 h1         1 16D       0.025950
     12 H12          1.1900     0.8860     3.2030 h1         1 16D       0.025950
     13 H21         -1.0070     0.8590     1.9840 hc         1 16D       0.045200
     14 H22         -0.9890    -0.9060     1.9780 hc         1 16D       0.045200
     15 H31          1.1170    -0.8800     0.6100 hc         1 16D       0.037200
     16 H32          1.0990     0.8840     0.6150 hc         1 16D       0.037200
     17 H41         -1.1050     0.8660    -0.5930 hc         1 16D       0.037200
     18 H42         -1.0880    -0.8970    -0.5990 hc         1 16D       0.037200
     19 H51          1.0180    -0.8730    -1.9670 hc         1 16D       0.045200
     20 H52          1.0010     0.8920    -1.9610 hc         1 16D       0.045200
     21 H61         -1.1960     0.8830    -3.1810 h1         1 16D       0.025950
     22 H62         -1.1790    -0.9000    -3.1850 h1         1 16D       0.025950
     23 HN21        -0.3910     0.0680    -5.2360 hn         1 16D       0.390500
     24 HN22         0.7790     0.8850    -4.4820 hn         1 16D       0.390500
@<TRIPOS>BOND
     1     1     2 1   
     2     1     9 1   
     3     1    10 1   
     4     2     3 1   
     5     2    11 1   
     6     2    12 1   
     7     3     4 1   
     8     3    13 1   
     9     3    14 1   
    10     4     5 1   
    11     4    15 1   
    12     4    16 1   
    13     5     6 1   
    14     5    17 1   
    15     5    18 1   
    16     6     7 1   
    17     6    19 1   
    18     6    20 1   
    19     7     8 1   
    20     7    21 1   
    21     7    22 1   
    22     8    23 1   
    23     8    24 1   
@<TRIPOS>SUBSTRUCTURE
     1 16D         1 TEMP              0 ****  ****    0 ROOT
