@<TRIPOS>MOLECULE
16D
   24    23     1     0     0
SMALL
bcc


@<TRIPOS>ATOM
      1 N1          -0.2550     0.0070     4.3820 n8         1 16D      -0.884800
      2 C1           0.5430    -0.0060     3.1630 c3         1 16D       0.149800
      3 C2          -0.3450    -0.0050     1.9290 c3         1 16D      -0.078400
      4 C3           0.4490    -0.0040     0.6290 c3         1 16D      -0.074400
      5 C4          -0.4360    -0.0090    -0.6120 c3         1 16D      -0.074400
      6 C5           0.3570     0.0150    -1.9120 c3         1 16D      -0.078400
      7 C6          -0.5320     0.0030    -3.1460 c3         1 16D       0.149800
      8 N2           0.2640     0.0400    -4.3650 n8         1 16D      -0.884800
      9 HN11         0.3570    -0.0310     5.1870 hn         1 16D       0.335300
     10 HN12        -0.7360     0.8950     4.4510 hn         1 16D       0.335300
     11 H11          1.1510    -0.9150     3.1620 h1         1 16D       0.025950
     12 H12          1.2490     0.8350     3.0930 h1         1 16D       0.025950
     13 H21         -0.9970     0.8760     1.9540 hc         1 16D       0.045200
     14 H22         -1.0060    -0.8780     1.9610 hc         1 16D       0.045200
     15 H31          1.1110    -0.8770     0.6040 hc         1 16D       0.037200
     16 H32          1.1040     0.8730     0.6020 hc         1 16D       0.037200
     17 H41         -1.1080     0.8560    -0.5790 hc         1 16D       0.037200
     18 H42         -1.0810    -0.8940    -0.5940 hc         1 16D       0.037200
     19 H51          1.0340    -0.8450    -1.9510 hc         1 16D       0.045200
     20 H52          0.9920     0.9090    -1.9320 hc         1 16D       0.045200
     21 H61         -1.2540     0.8300    -3.0700 h1         1 16D       0.025950
     22 H62         -1.1220    -0.9170    -3.1500 h1         1 16D       0.025950
     23 HN21        -0.3480    -0.0040    -5.1700 hn         1 16D       0.335300
     24 HN22         0.7280     0.9380    -4.4290 hn         1 16D       0.335300
@<TRIPOS>BOND
     1     1     2 1   
     2     1     9 1   
     3     1    10 1   
     4     2     3 1   
     5     2    11 1   
     6     2    12 1   
     7     3     4 1   
     8     3    13 1   
     9     3    14 1   
    10     4     5 1   
    11     4    15 1   
    12     4    16 1   
    13     5     6 1   
    14     5    17 1   
    15     5    18 1   
    16     6     7 1   
    17     6    19 1   
    18     6    20 1   
    19     7     8 1   
    20     7    21 1   
    21     7    22 1   
    22     8    23 1   
    23     8    24 1   
@<TRIPOS>SUBSTRUCTURE
     1 16D         1 TEMP              0 ****  ****    0 ROOT
