@<TRIPOS>MOLECULE
16E
   63    62     1     0     0
SMALL
No Charge or Current Charge


@<TRIPOS>ATOM
      1 O01          5.9250    -0.6610     1.7080 o          1 16E      -0.657100
      2 C02          5.5790    -0.3430     0.5770 c          1 16E       0.597100
      3 N03          6.3180     0.5020    -0.2240 ns         1 16E      -0.432900
      4 C04          7.6170     1.1210     0.1360 c3         1 16E      -0.044300
      5 C05          8.8230     0.3420    -0.4570 c3         1 16E      -0.054400
      6 C06          8.9690    -1.1150     0.0560 c3         1 16E      -0.200400
      7 C07         10.2540    -1.7490    -0.5110 c          1 16E       0.712000
      8 O08         10.1900    -2.3230    -1.5870 o          1 16E      -0.764000
      9 C09          7.6390     2.6170    -0.3050 c          1 16E       0.717000
     10 O10          7.3450     2.8920    -1.4620 o          1 16E      -0.746000
     11 O11          7.8660     3.4680     0.5440 o          1 16E      -0.746000
     12 C12          4.2960    -0.8820    -0.0710 c3         1 16E      -0.160400
     13 C13          3.0350    -0.2140     0.5270 c3         1 16E      -0.062400
     14 C14          1.7230    -0.7280    -0.1060 c3         1 16E      -0.077400
     15 C15          0.4630    -0.0620     0.4910 c3         1 16E      -0.075400
     16 C16         -0.8490    -0.5770    -0.1420 c3         1 16E      -0.074400
     17 C17         -2.1090     0.0880     0.4550 c3         1 16E      -0.075400
     18 C18         -3.4200    -0.4260    -0.1770 c3         1 16E      -0.074400
     19 C19         -4.6800     0.2380     0.4200 c3         1 16E      -0.075400
     20 C20         -5.9920    -0.2770    -0.2120 c3         1 16E      -0.074400
     21 C21         -7.2520     0.3880     0.3850 c3         1 16E      -0.075400
     22 C22         -8.5640    -0.1270    -0.2460 c3         1 16E      -0.074400
     23 C23         -9.8240     0.5380     0.3510 c3         1 16E      -0.079400
     24 C24        -11.1370     0.0230    -0.2800 c3         1 16E      -0.054400
     25 C25        -12.4020     0.6880     0.3160 c3         1 16E      -0.202400
     26 C26        -13.6670     0.1270    -0.3590 c          1 16E       0.716000
     27 O27        -14.0740     0.6760    -1.3720 o          1 16E      -0.748000
     28 O28        -14.1830    -0.8710     0.1210 o          1 16E      -0.748000
     29 OXT         11.2930    -1.6090     0.1160 o          1 16E      -0.764000
     30 H03          5.9320     0.7120    -1.1370 hn         1 16E       0.293500
     31 H121         4.3100    -0.6890    -1.1500 hc         1 16E       0.040200
     32 H122         4.2350    -1.9620     0.1110 hc         1 16E       0.040200
     33 H04          7.7120     1.1150     1.2290 h1         1 16E       0.056700
     34 H051         8.7460     0.3340    -1.5510 hc         1 16E       0.047700
     35 H052         9.7400     0.8930    -0.2130 hc         1 16E       0.047700
     36 H061         9.0270    -1.0430     1.1490 hc         1 16E       0.011200
     37 H062         8.0870    -1.6570    -0.3060 hc         1 16E       0.011200
     38 H131         3.0090    -0.3960     1.6090 hc         1 16E       0.051200
     39 H132         3.1030     0.8720     0.3870 hc         1 16E       0.051200
     40 H141         1.7490    -0.5450    -1.1870 hc         1 16E       0.029700
     41 H142         1.6570    -1.8140     0.0340 hc         1 16E       0.029700
     42 H151         0.4370    -0.2450     1.5720 hc         1 16E       0.035700
     43 H152         0.5290     1.0240     0.3510 hc         1 16E       0.035700
     44 H161        -0.8230    -0.3940    -1.2230 hc         1 16E       0.033200
     45 H162        -0.9140    -1.6630    -0.0010 hc         1 16E       0.033200
     46 H171        -2.1340    -0.0940     1.5370 hc         1 16E       0.034700
     47 H172        -2.0430     1.1740     0.3150 hc         1 16E       0.034700
     48 H181        -3.3950    -0.2440    -1.2580 hc         1 16E       0.033700
     49 H182        -3.4860    -1.5130    -0.0360 hc         1 16E       0.033700
     50 H191        -4.7060     0.0560     1.5010 hc         1 16E       0.033700
     51 H192        -4.6150     1.3250     0.2790 hc         1 16E       0.033700
     52 H201        -5.9670    -0.0940    -1.2930 hc         1 16E       0.033700
     53 H202        -6.0580    -1.3630    -0.0710 hc         1 16E       0.033700
     54 H211        -7.2770     0.2060     1.4670 hc         1 16E       0.031700
     55 H212        -7.1870     1.4750     0.2440 hc         1 16E       0.031700
     56 H221        -8.5390     0.0550    -1.3280 hc         1 16E       0.032700
     57 H222        -8.6290    -1.2130    -0.1050 hc         1 16E       0.032700
     58 H231        -9.8480     0.3570     1.4320 hc         1 16E       0.022700
     59 H232        -9.7580     1.6240     0.2090 hc         1 16E       0.022700
     60 H241       -11.1120     0.2040    -1.3620 hc         1 16E       0.037200
     61 H242       -11.2020    -1.0630    -0.1400 hc         1 16E       0.037200
     62 H251       -12.3960     0.4410     1.3850 hc         1 16E       0.014200
     63 H252       -12.3020     1.7620     0.1110 hc         1 16E       0.014200
@<TRIPOS>BOND
     1     1     2 2   
     2     2     3 1   
     3     2    12 1   
     4     3     4 1   
     5     3    30 1   
     6     4     5 1   
     7     4     9 1   
     8     4    33 1   
     9     5     6 1   
    10     5    34 1   
    11     5    35 1   
    12     6     7 1   
    13     6    36 1   
    14     6    37 1   
    15     7     8 1   
    16     7    29 1   
    17     9    10 1   
    18     9    11 1   
    19    12    13 1   
    20    12    31 1   
    21    12    32 1   
    22    13    14 1   
    23    13    38 1   
    24    13    39 1   
    25    14    15 1   
    26    14    40 1   
    27    14    41 1   
    28    15    16 1   
    29    15    42 1   
    30    15    43 1   
    31    16    17 1   
    32    16    44 1   
    33    16    45 1   
    34    17    18 1   
    35    17    46 1   
    36    17    47 1   
    37    18    19 1   
    38    18    48 1   
    39    18    49 1   
    40    19    20 1   
    41    19    50 1   
    42    19    51 1   
    43    20    21 1   
    44    20    52 1   
    45    20    53 1   
    46    21    22 1   
    47    21    54 1   
    48    21    55 1   
    49    22    23 1   
    50    22    56 1   
    51    22    57 1   
    52    23    24 1   
    53    23    58 1   
    54    23    59 1   
    55    24    25 1   
    56    24    60 1   
    57    24    61 1   
    58    25    26 1   
    59    25    62 1   
    60    25    63 1   
    61    26    27 1   
    62    26    28 1   
@<TRIPOS>SUBSTRUCTURE
     1 16E         1 TEMP              0 ****  ****    0 ROOT
