@<TRIPOS>MOLECULE
16E
   63    62     1     0     0
SMALL
abcg2


@<TRIPOS>ATOM
      1 O01          5.4100     0.9050     1.7000 o          1 16E      -0.657100
      2 C02          5.4330     0.4250     0.5720 c          1 16E       0.597100
      3 N03          6.5610     0.2640    -0.1310 ns         1 16E      -0.432900
      4 C04          7.8530     0.7450     0.2990 c3         1 16E      -0.044300
      5 C05          8.9580    -0.1020    -0.3350 c3         1 16E      -0.054400
      6 C06          8.8990    -1.5660     0.0700 c3         1 16E      -0.200400
      7 C07         10.0020    -2.4670    -0.5120 c          1 16E       0.712000
      8 O08         10.8410    -1.9500    -1.2750 o          1 16E      -0.764000
      9 C09          8.0600     2.2520    -0.0010 c          1 16E       0.717000
     10 O10          7.2120     2.8290    -0.7010 o          1 16E      -0.746000
     11 O11          9.0930     2.7490     0.4940 o          1 16E      -0.746000
     12 C12          4.1830    -0.1050    -0.1040 c3         1 16E      -0.160400
     13 C13          2.8940     0.5220     0.4040 c3         1 16E      -0.062400
     14 C14          1.6610    -0.0920    -0.2460 c3         1 16E      -0.077400
     15 C15          0.3570     0.4880     0.2860 c3         1 16E      -0.075400
     16 C16         -0.8840    -0.1450    -0.3300 c3         1 16E      -0.074400
     17 C17         -2.1820     0.4170     0.2350 c3         1 16E      -0.075400
     18 C18         -3.4330    -0.2240    -0.3520 c3         1 16E      -0.074400
     19 C19         -4.7200     0.3370     0.2410 c3         1 16E      -0.075400
     20 C20         -5.9850    -0.2980    -0.3210 c3         1 16E      -0.074400
     21 C21         -7.2560     0.2730     0.2940 c3         1 16E      -0.075400
     22 C22         -8.5370    -0.3470    -0.2490 c3         1 16E      -0.074400
     23 C23         -9.7940     0.2410     0.3810 c3         1 16E      -0.079400
     24 C24        -11.0890    -0.3600    -0.1500 c3         1 16E      -0.054400
     25 C25        -12.3210     0.2530     0.4950 c3         1 16E      -0.202400
     26 C26        -13.6820    -0.2810     0.0170 c          1 16E       0.716000
     27 O27        -13.6890    -1.1570    -0.8700 o          1 16E      -0.748000
     28 O28        -14.6880     0.2190     0.5670 o          1 16E      -0.748000
     29 OXT          9.9630    -3.6680    -0.1660 o          1 16E      -0.764000
     30 H03          6.4740    -0.0180    -1.0950 hn         1 16E       0.293500
     31 H121         4.2610     0.0190    -1.1880 hc         1 16E       0.040200
     32 H122         4.1510    -1.1870     0.0660 hc         1 16E       0.040200
     33 H04          7.9070     0.6150     1.3850 h1         1 16E       0.056700
     34 H051         8.9050    -0.0090    -1.4250 hc         1 16E       0.047700
     35 H052         9.9170     0.3250    -0.0410 hc         1 16E       0.047700
     36 H061         8.9390    -1.6440     1.1630 hc         1 16E       0.011200
     37 H062         7.9320    -1.9980    -0.2070 hc         1 16E       0.011200
     38 H131         2.8290     0.3990     1.4880 hc         1 16E       0.051200
     39 H132         2.9070     1.6010     0.2180 hc         1 16E       0.051200
     40 H141         1.7070     0.0480    -1.3320 hc         1 16E       0.029700
     41 H142         1.6680    -1.1750    -0.0820 hc         1 16E       0.029700
     42 H151         0.3240     0.3590     1.3740 hc         1 16E       0.035700
     43 H152         0.3390     1.5690     0.1120 hc         1 16E       0.035700
     44 H161        -0.8660    -0.0050    -1.4160 hc         1 16E       0.033200
     45 H162        -0.8570    -1.2280    -0.1660 hc         1 16E       0.033200
     46 H171        -2.1880     0.2860     1.3230 hc         1 16E       0.034700
     47 H172        -2.2150     1.4990     0.0640 hc         1 16E       0.034700
     48 H181        -3.4400    -0.0850    -1.4390 hc         1 16E       0.033700
     49 H182        -3.3980    -1.3070    -0.1860 hc         1 16E       0.033700
     50 H191        -4.7020     0.2040     1.3290 hc         1 16E       0.033700
     51 H192        -4.7530     1.4190     0.0730 hc         1 16E       0.033700
     52 H201        -6.0110    -0.1610    -1.4080 hc         1 16E       0.033700
     53 H202        -5.9540    -1.3810    -0.1550 hc         1 16E       0.033700
     54 H211        -7.2230     0.1370     1.3810 hc         1 16E       0.031700
     55 H212        -7.2820     1.3560     0.1290 hc         1 16E       0.031700
     56 H221        -8.5770    -0.2100    -1.3360 hc         1 16E       0.032700
     57 H222        -8.5180    -1.4300    -0.0830 hc         1 16E       0.032700
     58 H231        -9.7480     0.1050     1.4680 hc         1 16E       0.022700
     59 H232        -9.8030     1.3250     0.2190 hc         1 16E       0.022700
     60 H241       -11.1320    -0.2260    -1.2350 hc         1 16E       0.037200
     61 H242       -11.0800    -1.4420     0.0160 hc         1 16E       0.037200
     62 H251       -12.2670     0.1250     1.5830 hc         1 16E       0.014200
     63 H252       -12.3090     1.3390     0.3420 hc         1 16E       0.014200
@<TRIPOS>BOND
     1     1     2 2   
     2     2     3 1   
     3     2    12 1   
     4     3     4 1   
     5     3    30 1   
     6     4     5 1   
     7     4     9 1   
     8     4    33 1   
     9     5     6 1   
    10     5    34 1   
    11     5    35 1   
    12     6     7 1   
    13     6    36 1   
    14     6    37 1   
    15     7     8 1   
    16     7    29 1   
    17     9    10 1   
    18     9    11 1   
    19    12    13 1   
    20    12    31 1   
    21    12    32 1   
    22    13    14 1   
    23    13    38 1   
    24    13    39 1   
    25    14    15 1   
    26    14    40 1   
    27    14    41 1   
    28    15    16 1   
    29    15    42 1   
    30    15    43 1   
    31    16    17 1   
    32    16    44 1   
    33    16    45 1   
    34    17    18 1   
    35    17    46 1   
    36    17    47 1   
    37    18    19 1   
    38    18    48 1   
    39    18    49 1   
    40    19    20 1   
    41    19    50 1   
    42    19    51 1   
    43    20    21 1   
    44    20    52 1   
    45    20    53 1   
    46    21    22 1   
    47    21    54 1   
    48    21    55 1   
    49    22    23 1   
    50    22    56 1   
    51    22    57 1   
    52    23    24 1   
    53    23    58 1   
    54    23    59 1   
    55    24    25 1   
    56    24    60 1   
    57    24    61 1   
    58    25    26 1   
    59    25    62 1   
    60    25    63 1   
    61    26    27 1   
    62    26    28 1   
@<TRIPOS>SUBSTRUCTURE
     1 16E         1 TEMP              0 ****  ****    0 ROOT
