@<TRIPOS>MOLECULE
16H
   75    75     1     0     0
SMALL
bcc


@<TRIPOS>ATOM
      1 O21          3.4930    -1.4240     1.7930 o          1 16H      -0.602100
      2 C21          3.4350    -0.9890     0.6500 c          1 16H       0.667100
      3 N2           4.4400    -1.1040    -0.2370 ns         1 16H      -0.572900
      4 C2           5.6900    -1.7900     0.0140 c3         1 16H       0.114700
      5 C1           5.7430    -3.1110    -0.7400 c3         1 16H       0.117400
      6 O1           5.6930    -2.8510    -2.1240 oh         1 16H      -0.606800
      7 C3           6.8780    -0.8900    -0.3250 c3         1 16H      -0.121400
      8 C4           6.9870     0.3470     0.5660 c3         1 16H       0.194400
      9 C5           8.1230     1.2300     0.0900 ca         1 16H      -0.111300
     10 C6           7.9180     2.0850    -0.9910 ca         1 16H      -0.119500
     11 C7           8.9460     2.8800    -1.4760 ca         1 16H      -0.127000
     12 C8          10.2020     2.8330    -0.8820 ca         1 16H      -0.127000
     13 C9          10.4150     1.9860     0.1970 ca         1 16H      -0.127000
     14 C10          9.3820     1.1910     0.6800 ca         1 16H      -0.119500
     15 O4           7.0910     0.0110     1.9290 oh         1 16H      -0.578800
     16 C22          2.2180    -0.2490     0.1340 c3         1 16H      -0.157400
     17 C23          0.9080    -0.7870     0.6960 c3         1 16H      -0.065400
     18 C24         -0.3020    -0.0650     0.1180 c3         1 16H      -0.076400
     19 C25         -1.6250    -0.5830     0.6670 c3         1 16H      -0.074400
     20 C26         -2.8370     0.1050     0.0530 c3         1 16H      -0.074400
     21 C27         -4.1660    -0.4100     0.5910 c3         1 16H      -0.074400
     22 C28         -5.3720     0.2690    -0.0460 c3         1 16H      -0.074400
     23 C29         -6.7070    -0.2440     0.4780 c3         1 16H      -0.074400
     24 C30         -7.9040     0.4360    -0.1730 c3         1 16H      -0.074400
     25 C31         -9.2460    -0.0710     0.3410 c3         1 16H      -0.074400
     26 C32        -10.4360     0.6130    -0.3210 c3         1 16H      -0.074400
     27 C33        -11.7830     0.1120     0.1840 c3         1 16H      -0.074400
     28 C34        -12.9670     0.8000    -0.4840 c3         1 16H      -0.075400
     29 C35        -14.3170     0.3030     0.0150 c3         1 16H      -0.074400
     30 C36        -15.4920     0.9980    -0.6600 c3         1 16H      -0.088100
     31 HN2          4.2760    -0.7830    -1.1790 hn         1 16H       0.316500
     32 H2           5.7170    -2.0330     1.0770 h1         1 16H       0.092700
     33 H1           6.6640    -3.6380    -0.4550 h1         1 16H       0.030700
     34 H1A          4.9010    -3.7330    -0.4150 h1         1 16H       0.030700
     35 HO1          5.5910    -3.6870    -2.5860 ho         1 16H       0.407000
     36 H3           7.8010    -1.4750    -0.2370 hc         1 16H       0.059200
     37 H3A          6.8240    -0.5710    -1.3690 hc         1 16H       0.059200
     38 H4           6.0600     0.9220     0.4760 h1         1 16H       0.081700
     39 H6           6.9390     2.1350    -1.4560 ha         1 16H       0.128000
     40 H7           8.7680     3.5420    -2.3140 ha         1 16H       0.130000
     41 H8          11.0040     3.4560    -1.2540 ha         1 16H       0.130000
     42 H9          11.3880     1.9440     0.6690 ha         1 16H       0.130000
     43 H10          9.5710     0.5470     1.5300 ha         1 16H       0.128000
     44 HO4          7.7070    -0.7230     2.0280 ho         1 16H       0.398000
     45 H22          2.3300     0.8050     0.4070 hc         1 16H       0.055200
     46 H22A         2.1940    -0.2750    -0.9580 hc         1 16H       0.055200
     47 H23          0.8260    -1.8570     0.4780 hc         1 16H       0.054200
     48 H23A         0.9060    -0.6930     1.7840 hc         1 16H       0.054200
     49 H24         -0.2190     1.0090     0.3180 hc         1 16H       0.035700
     50 H24A        -0.2990    -0.1690    -0.9730 hc         1 16H       0.035700
     51 H25         -1.6940    -1.6620     0.4910 hc         1 16H       0.040200
     52 H25A        -1.6440    -0.4530     1.7550 hc         1 16H       0.040200
     53 H26         -2.7690     1.1850     0.2270 hc         1 16H       0.036200
     54 H26A        -2.8120    -0.0250    -1.0350 hc         1 16H       0.036200
     55 H27         -4.2290    -1.4920     0.4260 hc         1 16H       0.038200
     56 H27A        -4.2000    -0.2690     1.6770 hc         1 16H       0.038200
     57 H28         -5.3080     1.3500     0.1190 hc         1 16H       0.036200
     58 H28A        -5.3320     0.1290    -1.1320 hc         1 16H       0.036200
     59 H29         -6.7710    -1.3260     0.3160 hc         1 16H       0.037700
     60 H29A        -6.7520    -0.0990     1.5640 hc         1 16H       0.037700
     61 H30         -7.8390     1.5170    -0.0110 hc         1 16H       0.036700
     62 H30A        -7.8540     0.2920    -1.2580 hc         1 16H       0.036700
     63 H31         -9.3130    -1.1520     0.1790 hc         1 16H       0.037200
     64 H31A        -9.3000     0.0760     1.4250 hc         1 16H       0.037200
     65 H32        -10.3670     1.6940    -0.1600 hc         1 16H       0.036700
     66 H32A       -10.3780     0.4680    -1.4060 hc         1 16H       0.036700
     67 H33        -11.8530    -0.9690     0.0220 hc         1 16H       0.036700
     68 H33A       -11.8420     0.2590     1.2680 hc         1 16H       0.036700
     69 H34        -12.8960     1.8810    -0.3230 hc         1 16H       0.036700
     70 H34A       -12.9060     0.6540    -1.5690 hc         1 16H       0.036700
     71 H35        -14.3880    -0.7770    -0.1470 hc         1 16H       0.036700
     72 H35A       -14.3780     0.4490     1.0990 hc         1 16H       0.036700
     73 H36        -16.4470     0.6270    -0.2870 hc         1 16H       0.031367
     74 H36A       -15.4640     2.0750    -0.4860 hc         1 16H       0.031367
     75 H36B       -15.4750     0.8410    -1.7400 hc         1 16H       0.031367
@<TRIPOS>BOND
     1     1     2 2   
     2     2     3 1   
     3     2    16 1   
     4     3     4 1   
     5     3    31 1   
     6     4     5 1   
     7     4     7 1   
     8     4    32 1   
     9     5     6 1   
    10     5    33 1   
    11     5    34 1   
    12     6    35 1   
    13     7     8 1   
    14     7    36 1   
    15     7    37 1   
    16     8     9 1   
    17     8    15 1   
    18     8    38 1   
    19     9    10 ar  
    20     9    14 ar  
    21    10    11 ar  
    22    10    39 1   
    23    11    12 ar  
    24    11    40 1   
    25    12    13 ar  
    26    12    41 1   
    27    13    14 ar  
    28    13    42 1   
    29    14    43 1   
    30    15    44 1   
    31    16    17 1   
    32    16    45 1   
    33    16    46 1   
    34    17    18 1   
    35    17    47 1   
    36    17    48 1   
    37    18    19 1   
    38    18    49 1   
    39    18    50 1   
    40    19    20 1   
    41    19    51 1   
    42    19    52 1   
    43    20    21 1   
    44    20    53 1   
    45    20    54 1   
    46    21    22 1   
    47    21    55 1   
    48    21    56 1   
    49    22    23 1   
    50    22    57 1   
    51    22    58 1   
    52    23    24 1   
    53    23    59 1   
    54    23    60 1   
    55    24    25 1   
    56    24    61 1   
    57    24    62 1   
    58    25    26 1   
    59    25    63 1   
    60    25    64 1   
    61    26    27 1   
    62    26    65 1   
    63    26    66 1   
    64    27    28 1   
    65    27    67 1   
    66    27    68 1   
    67    28    29 1   
    68    28    69 1   
    69    28    70 1   
    70    29    30 1   
    71    29    71 1   
    72    29    72 1   
    73    30    73 1   
    74    30    74 1   
    75    30    75 1   
@<TRIPOS>SUBSTRUCTURE
     1 16H         1 TEMP              0 ****  ****    0 ROOT
