@<TRIPOS>MOLECULE
16H
   75    75     1     0     0
SMALL
No Charge or Current Charge


@<TRIPOS>ATOM
      1 O21          3.7690    -1.2000     2.8360 o          1 16H      -0.602100
      2 C21          3.5540    -0.6570     1.7620 c          1 16H       0.600100
      3 N2           4.3970    -0.7940     0.6840 ns         1 16H      -0.505900
      4 C2           5.5900    -1.6530     0.6560 c3         1 16H       0.114700
      5 C1           5.2260    -3.1000     0.2170 c3         1 16H       0.140600
      6 O1           4.6440    -3.1220    -1.1000 oh         1 16H      -0.669000
      7 C3           6.7060    -1.0210    -0.2160 c3         1 16H      -0.121400
      8 C4           7.2340     0.3350     0.3130 c3         1 16H       0.217600
      9 C5           8.1500     1.0500    -0.6820 ca         1 16H      -0.111300
     10 C6           7.9010     2.3980    -1.0170 ca         1 16H      -0.101500
     11 C7           8.7330     3.0730    -1.9270 ca         1 16H      -0.109000
     12 C8           9.8250     2.4080    -2.5090 ca         1 16H      -0.109000
     13 C9          10.0840     1.0680    -2.1800 ca         1 16H      -0.109000
     14 C10          9.2530     0.3910    -1.2700 ca         1 16H      -0.101500
     15 O4           7.9460     0.1250     1.5340 oh         1 16H      -0.641000
     16 C22          2.3470     0.2580     1.5270 c3         1 16H      -0.157400
     17 C23          1.0390    -0.5560     1.3880 c3         1 16H      -0.065400
     18 C24         -0.2000     0.3330     1.1430 c3         1 16H      -0.076400
     19 C25         -1.5080    -0.4780     1.0050 c3         1 16H      -0.074400
     20 C26         -2.7460     0.4110     0.7600 c3         1 16H      -0.074400
     21 C27         -4.0540    -0.3990     0.6210 c3         1 16H      -0.074400
     22 C28         -5.2930     0.4900     0.3760 c3         1 16H      -0.074400
     23 C29         -6.6000    -0.3200     0.2390 c3         1 16H      -0.074400
     24 C30         -7.8390     0.5690    -0.0060 c3         1 16H      -0.074400
     25 C31         -9.1470    -0.2410    -0.1440 c3         1 16H      -0.074400
     26 C32        -10.3860     0.6480    -0.3880 c3         1 16H      -0.074400
     27 C33        -11.6940    -0.1620    -0.5260 c3         1 16H      -0.074400
     28 C34        -12.9330     0.7280    -0.7700 c3         1 16H      -0.075400
     29 C35        -14.2400    -0.0820    -0.9070 c3         1 16H      -0.074400
     30 C36        -15.4770     0.8050    -1.1510 c3         1 16H      -0.088100
     31 HN2          4.1150    -0.3400    -0.1750 hn         1 16H       0.316500
     32 H2           5.9830    -1.7260     1.6800 h1         1 16H       0.092700
     33 H1           6.1320    -3.7200     0.2430 h1         1 16H       0.030700
     34 H1A          4.5200    -3.5220     0.9460 h1         1 16H       0.030700
     35 HO1          4.4230    -4.0580    -1.3020 ho         1 16H       0.446000
     36 H3           7.5370    -1.7320    -0.2930 hc         1 16H       0.059200
     37 H3A          6.3240    -0.8770    -1.2340 hc         1 16H       0.059200
     38 H4           6.3660     0.9840     0.5000 h1         1 16H       0.081700
     39 H6           7.0600     2.9260    -0.5720 ha         1 16H       0.110000
     40 H7           8.5320     4.1110    -2.1790 ha         1 16H       0.112000
     41 H8          10.4690     2.9310    -3.2130 ha         1 16H       0.112000
     42 H9          10.9310     0.5530    -2.6280 ha         1 16H       0.112000
     43 H10          9.4730    -0.6450    -1.0250 ha         1 16H       0.110000
     44 HO4          8.8880     0.0130     1.2850 ho         1 16H       0.437000
     45 H22          2.2470     0.9340     2.3840 hc         1 16H       0.055200
     46 H22A         2.4920     0.8400     0.6090 hc         1 16H       0.055200
     47 H23          1.1430    -1.2670     0.5590 hc         1 16H       0.054200
     48 H23A         0.8830    -1.1480     2.2990 hc         1 16H       0.054200
     49 H24         -0.3040     1.0440     1.9720 hc         1 16H       0.035700
     50 H24A        -0.0450     0.9240     0.2320 hc         1 16H       0.035700
     51 H25         -1.4050    -1.1890     0.1750 hc         1 16H       0.040200
     52 H25A        -1.6630    -1.0690     1.9160 hc         1 16H       0.040200
     53 H26         -2.8490     1.1220     1.5890 hc         1 16H       0.036200
     54 H26A        -2.5910     1.0020    -0.1520 hc         1 16H       0.036200
     55 H27         -3.9510    -1.1100    -0.2080 hc         1 16H       0.038200
     56 H27A        -4.2090    -0.9900     1.5330 hc         1 16H       0.038200
     57 H28         -5.3950     1.2010     1.2060 hc         1 16H       0.036200
     58 H28A        -5.1370     1.0810    -0.5350 hc         1 16H       0.036200
     59 H29         -6.4980    -1.0310    -0.5910 hc         1 16H       0.037700
     60 H29A        -6.7560    -0.9110     1.1500 hc         1 16H       0.037700
     61 H30         -7.9420     1.2800     0.8230 hc         1 16H       0.036700
     62 H30A        -7.6840     1.1600    -0.9180 hc         1 16H       0.036700
     63 H31         -9.0450    -0.9520    -0.9730 hc         1 16H       0.037200
     64 H31A        -9.3020    -0.8320     0.7680 hc         1 16H       0.037200
     65 H32        -10.4880     1.3590     0.4410 hc         1 16H       0.036700
     66 H32A       -10.2310     1.2390    -1.2990 hc         1 16H       0.036700
     67 H33        -11.5910    -0.8730    -1.3550 hc         1 16H       0.036700
     68 H33A       -11.8490    -0.7530     0.3860 hc         1 16H       0.036700
     69 H34        -13.0350     1.4380     0.0600 hc         1 16H       0.036700
     70 H34A       -12.7780     1.3190    -1.6810 hc         1 16H       0.036700
     71 H35        -14.1430    -0.7930    -1.7370 hc         1 16H       0.036700
     72 H35A       -14.4000    -0.6730     0.0030 hc         1 16H       0.036700
     73 H36        -16.3780     0.1870    -1.2410 hc         1 16H       0.031367
     74 H36A       -15.6220     1.5050    -0.3190 hc         1 16H       0.031367
     75 H36B       -15.3630     1.3840    -2.0750 hc         1 16H       0.031367
@<TRIPOS>BOND
     1     1     2 2   
     2     2     3 1   
     3     2    16 1   
     4     3     4 1   
     5     3    31 1   
     6     4     5 1   
     7     4     7 1   
     8     4    32 1   
     9     5     6 1   
    10     5    33 1   
    11     5    34 1   
    12     6    35 1   
    13     7     8 1   
    14     7    36 1   
    15     7    37 1   
    16     8     9 1   
    17     8    15 1   
    18     8    38 1   
    19     9    10 ar  
    20     9    14 ar  
    21    10    11 ar  
    22    10    39 1   
    23    11    12 ar  
    24    11    40 1   
    25    12    13 ar  
    26    12    41 1   
    27    13    14 ar  
    28    13    42 1   
    29    14    43 1   
    30    15    44 1   
    31    16    17 1   
    32    16    45 1   
    33    16    46 1   
    34    17    18 1   
    35    17    47 1   
    36    17    48 1   
    37    18    19 1   
    38    18    49 1   
    39    18    50 1   
    40    19    20 1   
    41    19    51 1   
    42    19    52 1   
    43    20    21 1   
    44    20    53 1   
    45    20    54 1   
    46    21    22 1   
    47    21    55 1   
    48    21    56 1   
    49    22    23 1   
    50    22    57 1   
    51    22    58 1   
    52    23    24 1   
    53    23    59 1   
    54    23    60 1   
    55    24    25 1   
    56    24    61 1   
    57    24    62 1   
    58    25    26 1   
    59    25    63 1   
    60    25    64 1   
    61    26    27 1   
    62    26    65 1   
    63    26    66 1   
    64    27    28 1   
    65    27    67 1   
    66    27    68 1   
    67    28    29 1   
    68    28    69 1   
    69    28    70 1   
    70    29    30 1   
    71    29    71 1   
    72    29    72 1   
    73    30    73 1   
    74    30    74 1   
    75    30    75 1   
@<TRIPOS>SUBSTRUCTURE
     1 16H         1 TEMP              0 ****  ****    0 ROOT
