@<TRIPOS>MOLECULE
16I
   38    41     1     0     0
SMALL
No Charge or Current Charge


@<TRIPOS>ATOM
      1 O            3.9320    -2.0940     0.3640 o          1 16I      -0.567100
      2 C4           4.1340    -0.8960     0.2050 c          1 16I       0.655700
      3 C3           5.4960    -0.3200     0.1690 cc         1 16I      -0.307600
      4 C1           6.6500    -1.0540     0.3100 cd         1 16I      -0.052000
      5 C            7.8260    -0.2600     0.2380 cd         1 16I      -0.144000
      6 N            3.1340     0.0520     0.0360 ns         1 16I      -0.143000
      7 C5           1.7160    -0.0430     0.0180 ca         1 16I       0.010000
      8 C6           0.9890     1.1210    -0.2860 ca         1 16I      -0.161500
      9 C7          -0.4160     1.1070    -0.3200 ca         1 16I      -0.042000
     10 C10          1.0060    -1.2260     0.3050 ca         1 16I      -0.161500
     11 C9          -0.3990    -1.2460     0.2710 ca         1 16I      -0.042000
     12 C8          -1.1330    -0.0840    -0.0660 ca         1 16I      -0.185900
     13 C11         -2.6050    -0.0800    -0.0660 cc         1 16I       0.570500
     14 N2          -3.2040    -1.2670    -0.3980 ns         1 16I      -0.427400
     15 C18         -4.5360    -1.4720    -0.4640 c          1 16I       0.578600
     16 O1          -5.0080    -2.5580    -0.7640 o          1 16I      -0.538000
     17 C19          7.5780     1.0760     0.0420 cc         1 16I      -0.217000
     18 N1          -3.2730     1.0420     0.2090 nd         1 16I      -0.638100
     19 C12         -4.6720     0.9230     0.1680 ca         1 16I       0.193400
     20 C17         -5.3450    -0.2720    -0.1480 ca         1 16I      -0.206600
     21 C13         -5.4320     2.0710     0.4620 ca         1 16I      -0.108000
     22 C14         -6.8370     2.0330     0.4440 ca         1 16I      -0.074000
     23 C15         -7.4990     0.8370     0.1290 ca         1 16I      -0.136000
     24 C16         -6.7560    -0.3170    -0.1680 ca         1 16I      -0.039000
     25 S            5.8480     1.3920    -0.0590 ss         1 16I       0.214000
     26 H            3.4790     0.9930    -0.0990 hn         1 16I       0.155000
     27 H1           6.6660    -2.1310     0.4610 ha         1 16I       0.156000
     28 HA           8.8270    -0.6730     0.3280 ha         1 16I       0.144000
     29 H19          8.2770     1.8970    -0.0490 h4         1 16I       0.156000
     30 H6           1.5140     2.0500    -0.4990 ha         1 16I       0.135000
     31 H10          1.5220    -2.1430     0.5720 ha         1 16I       0.135000
     32 H7          -0.9440     2.0280    -0.5590 ha         1 16I       0.128000
     33 H9          -0.9090    -2.1730     0.5270 ha         1 16I       0.128000
     34 H2          -2.6240    -2.0550    -0.6340 hn         1 16I       0.331500
     35 H13         -4.9250     3.0010     0.7070 ha         1 16I       0.131000
     36 H16         -7.2760    -1.2410    -0.4130 ha         1 16I       0.135000
     37 H14         -7.4090     2.9290     0.6740 ha         1 16I       0.116000
     38 H15         -8.5860     0.8030     0.1140 ha         1 16I       0.119000
@<TRIPOS>BOND
     1     1     2 2   
     2     2     3 1   
     3     2     6 1   
     4     3     4 2   
     5     3    25 1   
     6     4     5 1   
     7     4    27 1   
     8     5    17 2   
     9     5    28 1   
    10     6     7 1   
    11     6    26 1   
    12     7     8 ar  
    13     7    10 ar  
    14     8     9 ar  
    15     8    30 1   
    16     9    12 ar  
    17     9    32 1   
    18    10    11 ar  
    19    10    31 1   
    20    11    12 ar  
    21    11    33 1   
    22    12    13 1   
    23    13    14 1   
    24    13    18 2   
    25    14    15 1   
    26    14    34 1   
    27    15    16 2   
    28    15    20 1   
    29    17    25 1   
    30    17    29 1   
    31    18    19 1   
    32    19    20 ar  
    33    19    21 ar  
    34    20    24 ar  
    35    21    22 ar  
    36    21    35 1   
    37    22    23 ar  
    38    22    37 1   
    39    23    24 ar  
    40    23    38 1   
    41    24    36 1   
@<TRIPOS>SUBSTRUCTURE
     1 16I         1 TEMP              0 ****  ****    0 ROOT
