@<TRIPOS>MOLECULE
16I
   38    41     1     0     0
SMALL
bcc


@<TRIPOS>ATOM
      1 O            3.8130    -1.9020     0.5900 o          1 16I      -0.567100
      2 C4           4.0450    -0.7460     0.2850 c          1 16I       0.722700
      3 C3           5.4360    -0.2750     0.1450 cc         1 16I      -0.162700
      4 C1           6.5320    -0.9820     0.5590 cd         1 16I      -0.070000
      5 C            7.7490    -0.3120     0.2990 cd         1 16I      -0.162000
      6 N            3.0790     0.1870     0.0600 ns         1 16I      -0.469100
      7 C5           1.6960     0.0250     0.0590 ca         1 16I       0.102600
      8 C6           0.9300     1.1870    -0.0930 ca         1 16I      -0.179500
      9 C7          -0.4460     1.1300    -0.1280 ca         1 16I      -0.060000
     10 C10          1.0390    -1.2010     0.1820 ca         1 16I      -0.179500
     11 C9          -0.3450    -1.2450     0.1340 ca         1 16I      -0.060000
     12 C8          -1.1100    -0.0930    -0.0240 ca         1 16I      -0.185900
     13 C11         -2.5800    -0.1210    -0.0710 cc         1 16I       0.570500
     14 N2          -3.1780    -1.2870    -0.4560 ns         1 16I      -0.494400
     15 C18         -4.5400    -1.4790    -0.5350 c          1 16I       0.721100
     16 O1          -5.0050    -2.5480    -0.8860 o          1 16I      -0.613500
     17 C19          7.5610     0.8920    -0.3140 cc         1 16I      -0.090100
     18 N1          -3.2490     0.9340     0.2410 nd         1 16I      -0.638100
     19 C12         -4.6180     0.8730     0.1860 ca         1 16I       0.193400
     20 C17         -5.3090    -0.2940    -0.1790 ca         1 16I      -0.206600
     21 C13         -5.3570     2.0180     0.5170 ca         1 16I      -0.126000
     22 C14         -6.7330     1.9890     0.4810 ca         1 16I      -0.092000
     23 C15         -7.4160     0.8230     0.1140 ca         1 16I      -0.154000
     24 C16         -6.7060    -0.3100    -0.2140 ca         1 16I      -0.057000
     25 S            5.9080     1.2170    -0.5810 ss         1 16I      -0.075800
     26 H            3.3770     1.1420    -0.0810 hn         1 16I       0.321500
     27 H1           6.4640    -1.9480     1.0400 ha         1 16I       0.174000
     28 HA           8.7230    -0.7050     0.5510 ha         1 16I       0.162000
     29 H19          8.3090     1.6010    -0.6330 h4         1 16I       0.174000
     30 H6           1.4230     2.1460    -0.1930 ha         1 16I       0.153000
     31 H10          1.5850    -2.1180     0.3190 ha         1 16I       0.153000
     32 H7          -1.0140     2.0410    -0.2510 ha         1 16I       0.146000
     33 H9          -0.8120    -2.2150     0.2540 ha         1 16I       0.146000
     34 H2          -2.6040    -2.0670    -0.7480 hn         1 16I       0.331500
     35 H13         -4.8260     2.9170     0.8030 ha         1 16I       0.149000
     36 H16         -7.2220    -1.2170    -0.5020 ha         1 16I       0.153000
     37 H14         -7.2940     2.8780     0.7400 ha         1 16I       0.134000
     38 H15         -8.4970     0.8140     0.0900 ha         1 16I       0.137000
@<TRIPOS>BOND
     1     1     2 2   
     2     2     3 1   
     3     2     6 1   
     4     3     4 2   
     5     3    25 1   
     6     4     5 1   
     7     4    27 1   
     8     5    17 2   
     9     5    28 1   
    10     6     7 1   
    11     6    26 1   
    12     7     8 ar  
    13     7    10 ar  
    14     8     9 ar  
    15     8    30 1   
    16     9    12 ar  
    17     9    32 1   
    18    10    11 ar  
    19    10    31 1   
    20    11    12 ar  
    21    11    33 1   
    22    12    13 1   
    23    13    14 1   
    24    13    18 2   
    25    14    15 1   
    26    14    34 1   
    27    15    16 2   
    28    15    20 1   
    29    17    25 1   
    30    17    29 1   
    31    18    19 1   
    32    19    20 ar  
    33    19    21 ar  
    34    20    24 ar  
    35    21    22 ar  
    36    21    35 1   
    37    22    23 ar  
    38    22    37 1   
    39    23    24 ar  
    40    23    38 1   
    41    24    36 1   
@<TRIPOS>SUBSTRUCTURE
     1 16I         1 TEMP              0 ****  ****    0 ROOT
