@<TRIPOS>MOLECULE
16J
   41    43     1     0     0
SMALL
No Charge or Current Charge


@<TRIPOS>ATOM
      1 CAI          4.8620    -0.4030    -1.4160 c6         1 16J       0.057500
      2 CAG          6.2690    -0.1160    -0.8320 c6         1 16J       0.122600
      3 OAO          6.5260    -1.0020     0.2790 os         1 16J      -0.446000
      4 CAH          5.5750    -0.8480     1.3550 c6         1 16J       0.122600
      5 CAJ          4.1340    -1.1350     0.8530 c6         1 16J       0.057500
      6 NAS          3.7990    -0.3330    -0.3680 n          1 16J      -0.409800
      7 CAP          2.8140     0.6840    -0.3800 c          1 16J       0.643100
      8 OAA          2.9540     1.6650    -1.0970 o          1 16J      -0.624100
      9 NAT          1.6710     0.5640     0.4410 n          1 16J      -0.408800
     10 CAL          1.0190    -0.7420     0.7570 c6         1 16J       0.089500
     11 CAN         -0.3520    -0.9080     0.0380 c6         1 16J       0.165800
     12 CAK          0.7610     1.7170     0.6880 c6         1 16J       0.089500
     13 CAM         -0.5890     1.5730    -0.0620 c6         1 16J       0.165800
     14 NAU         -1.2500     0.2690     0.2470 nh         1 16J      -0.788400
     15 CAR         -2.6560     0.1470     0.1400 ca         1 16J       0.299000
     16 CAE         -3.4900     1.0250     0.8600 ca         1 16J      -0.155500
     17 CAC         -4.8900     0.9220     0.7710 ca         1 16J      -0.073000
     18 CAQ         -5.4690    -0.0650    -0.0430 ca         1 16J       0.086000
     19 ClA         -7.2190    -0.1960    -0.1570 cl         1 16J      -0.208000
     20 CAD         -4.6500    -0.9470    -0.7650 ca         1 16J      -0.073000
     21 CAF         -3.2500    -0.8420    -0.6720 ca         1 16J      -0.155500
     22 H1           4.6580     0.3020    -2.2330 h1         1 16J       0.066450
     23 H2           4.8580    -1.4100    -1.8570 h1         1 16J       0.066450
     24 H3           7.0350    -0.2720    -1.6040 h1         1 16J       0.055950
     25 H4           6.3310     0.9270    -0.4910 h1         1 16J       0.055950
     26 H5           5.8340    -1.5410     2.1680 h1         1 16J       0.055950
     27 H6           5.6370     0.1770     1.7480 h1         1 16J       0.055950
     28 H7           4.0330    -2.2050     0.6230 h1         1 16J       0.066450
     29 H8           3.4470    -0.9040     1.6770 h1         1 16J       0.066450
     30 H9           1.6490    -1.5880     0.4550 h1         1 16J       0.065700
     31 H10          0.8670    -0.8120     1.8440 h1         1 16J       0.065700
     32 H11         -0.1690    -1.0480    -1.0380 h1         1 16J       0.050200
     33 H12         -0.8290    -1.8250     0.4130 h1         1 16J       0.050200
     34 H13          0.5610     1.7810     1.7670 h1         1 16J       0.065700
     35 H14          1.2410     2.6630     0.3980 h1         1 16J       0.065700
     36 H15         -1.2340     2.4180     0.2150 h1         1 16J       0.050200
     37 H16         -0.4040     1.6480    -1.1440 h1         1 16J       0.050200
     38 H17         -3.0510     1.7840     1.5010 ha         1 16J       0.117500
     39 H18         -5.5250     1.6040     1.3330 ha         1 16J       0.126500
     40 H19         -5.0990    -1.7100    -1.3960 ha         1 16J       0.126500
     41 H20         -2.6310    -1.5250    -1.2460 ha         1 16J       0.117500
@<TRIPOS>BOND
     1     1     2 1   
     2     1     6 1   
     3     1    22 1   
     4     1    23 1   
     5     2     3 1   
     6     2    24 1   
     7     2    25 1   
     8     3     4 1   
     9     4     5 1   
    10     4    26 1   
    11     4    27 1   
    12     5     6 1   
    13     5    28 1   
    14     5    29 1   
    15     6     7 1   
    16     7     8 2   
    17     7     9 1   
    18     9    10 1   
    19     9    12 1   
    20    10    11 1   
    21    10    30 1   
    22    10    31 1   
    23    11    14 1   
    24    11    32 1   
    25    11    33 1   
    26    12    13 1   
    27    12    34 1   
    28    12    35 1   
    29    13    14 1   
    30    13    36 1   
    31    13    37 1   
    32    14    15 1   
    33    15    16 ar  
    34    15    21 ar  
    35    16    17 ar  
    36    16    38 1   
    37    17    18 ar  
    38    17    39 1   
    39    18    19 1   
    40    18    20 ar  
    41    20    21 ar  
    42    20    40 1   
    43    21    41 1   
@<TRIPOS>SUBSTRUCTURE
     1 16J         1 TEMP              0 ****  ****    0 ROOT
