@<TRIPOS>MOLECULE
16J
   41    43     1     0     0
SMALL
abcg2


@<TRIPOS>ATOM
      1 CAI          4.5070    -0.5140    -1.4690 c6         1 16J       0.057500
      2 CAG          5.8510     0.0530    -1.0480 c6         1 16J       0.122600
      3 OAO          6.3710    -0.6490     0.0630 os         1 16J      -0.446000
      4 CAH          5.4840    -0.6130     1.1570 c6         1 16J       0.122600
      5 CAJ          4.1180    -1.1870     0.8090 c6         1 16J       0.057500
      6 NAS          3.5700    -0.5060    -0.3570 n          1 16J      -0.409800
      7 CAP          2.6790     0.5320    -0.2570 c          1 16J       0.643100
      8 OAA          2.7370     1.5160    -0.9830 o          1 16J      -0.624100
      9 NAT          1.7180     0.3950     0.7170 n          1 16J      -0.408800
     10 CAL          1.0240    -0.8590     0.9570 c6         1 16J       0.089500
     11 CAN         -0.3010    -0.9160     0.2080 c6         1 16J       0.165800
     12 CAK          0.8770     1.5330     1.0280 c6         1 16J       0.089500
     13 CAM         -0.4350     1.4940     0.2650 c6         1 16J       0.165800
     14 NAU         -1.1270     0.2350     0.5120 nh         1 16J      -0.788400
     15 CAR         -2.4780     0.1700     0.1820 ca         1 16J       0.299000
     16 CAE         -3.3550     1.1870     0.5900 ca         1 16J      -0.155500
     17 CAC         -4.7070     1.1340     0.3070 ca         1 16J      -0.073000
     18 CAQ         -5.2240     0.0510    -0.3900 ca         1 16J       0.086000
     19 CLA         -6.9230    -0.0200    -0.7410 cl         1 16J      -0.208000
     20 CAD         -4.3880    -0.9690    -0.8020 ca         1 16J      -0.073000
     21 CAF         -3.0290    -0.9050    -0.5270 ca         1 16J      -0.155500
     22 H1           4.1050     0.0500    -2.3080 h1         1 16J       0.066450
     23 H2           4.6320    -1.5500    -1.7990 h1         1 16J       0.066450
     24 H3           6.5740    -0.0430    -1.8600 h1         1 16J       0.055950
     25 H4           5.7420     1.1210    -0.8140 h1         1 16J       0.055950
     26 H5           5.9330    -1.1960     1.9630 h1         1 16J       0.055950
     27 H6           5.3580     0.4180     1.5190 h1         1 16J       0.055950
     28 H7           4.2000    -2.2560     0.5940 h1         1 16J       0.066450
     29 H8           3.4680    -1.0750     1.6740 h1         1 16J       0.066450
     30 H9           1.6230    -1.7080     0.6390 h1         1 16J       0.065700
     31 H10          0.8440    -0.9660     2.0310 h1         1 16J       0.065700
     32 H11         -0.1050    -1.0090    -0.8710 h1         1 16J       0.050200
     33 H12         -0.8130    -1.8260     0.5240 h1         1 16J       0.050200
     34 H13          0.6670     1.5130     2.1010 h1         1 16J       0.065700
     35 H14          1.4010     2.4600     0.8110 h1         1 16J       0.065700
     36 H15         -1.0460     2.3320     0.5940 h1         1 16J       0.050200
     37 H16         -0.2430     1.6290    -0.8090 h1         1 16J       0.050200
     38 H17         -2.9900     2.0310     1.1590 ha         1 16J       0.117500
     39 H18         -5.3550     1.9320     0.6450 ha         1 16J       0.126500
     40 H19         -4.7800    -1.8150    -1.3510 ha         1 16J       0.126500
     41 H20         -2.4070    -1.7110    -0.8900 ha         1 16J       0.117500
@<TRIPOS>BOND
     1     1     2 1   
     2     1     6 1   
     3     1    22 1   
     4     1    23 1   
     5     2     3 1   
     6     2    24 1   
     7     2    25 1   
     8     3     4 1   
     9     4     5 1   
    10     4    26 1   
    11     4    27 1   
    12     5     6 1   
    13     5    28 1   
    14     5    29 1   
    15     6     7 1   
    16     7     8 2   
    17     7     9 1   
    18     9    10 1   
    19     9    12 1   
    20    10    11 1   
    21    10    30 1   
    22    10    31 1   
    23    11    14 1   
    24    11    32 1   
    25    11    33 1   
    26    12    13 1   
    27    12    34 1   
    28    12    35 1   
    29    13    14 1   
    30    13    36 1   
    31    13    37 1   
    32    14    15 1   
    33    15    16 ar  
    34    15    21 ar  
    35    16    17 ar  
    36    16    38 1   
    37    17    18 ar  
    38    17    39 1   
    39    18    19 1   
    40    18    20 ar  
    41    20    21 ar  
    42    20    40 1   
    43    21    41 1   
@<TRIPOS>SUBSTRUCTURE
     1 16J         1 TEMP              0 ****  ****    0 ROOT
