@<TRIPOS>MOLECULE
16K
   36    38     1     0     0
SMALL
No Charge or Current Charge


@<TRIPOS>ATOM
      1 S           -5.0450     0.7190     0.4740 ss         1 16K      -0.025400
      2 C1          -3.5140     0.0040     0.0400 cc         1 16K      -0.335500
      3 N1          -1.0650     0.0610    -0.0590 nb         1 16K      -0.246000
      4 O1           5.5100    -2.4870     0.9200 o          1 16K      -0.398500
      5 C2          -2.2280     0.7220     0.1110 ca         1 16K       0.273500
      6 N2           0.1850     2.0860     0.2560 nb         1 16K      -0.236000
      7 O2           7.1370    -1.1470     0.3570 o          1 16K      -0.398500
      8 C3           0.0740     0.7690     0.0100 ca         1 16K       0.390900
      9 N3           1.2330     0.0190    -0.1440 nu         1 16K      -0.929900
     10 C4          -0.9660     2.7580     0.4270 ca         1 16K       0.151900
     11 N4           5.9330    -1.4140     0.4680 no         1 16K       0.692200
     12 C5          -2.2090     2.1100     0.3600 ca         1 16K      -0.267000
     13 N5          -4.9730    -1.7780    -0.3020 nd         1 16K      -0.660000
     14 C6           2.5960     0.3280    -0.2610 ca         1 16K       0.321000
     15 C7           3.5410    -0.6340     0.1370 ca         1 16K      -0.122000
     16 C8           4.9320    -0.3830     0.0300 ca         1 16K      -0.142200
     17 C9           5.3630     0.8570    -0.4970 ca         1 16K      -0.081000
     18 C10          4.4220     1.8150    -0.9100 ca         1 16K      -0.094000
     19 C11          3.0460     1.5500    -0.7960 ca         1 16K      -0.102000
     20 C12         -3.6610    -1.3240    -0.3450 cd         1 16K       0.369300
     21 C13         -5.7830    -0.8150     0.1110 cc         1 16K       0.458700
     22 C14         -7.2640    -1.0020     0.2570 c3         1 16K      -0.134400
     23 C15         -2.6180    -2.3100    -0.8080 c3         1 16K      -0.121400
     24 HN3          1.0460    -0.9820    -0.0900 hn         1 16K       0.516000
     25 H4          -0.8910     3.8270     0.6200 h4         1 16K       0.026100
     26 H5          -3.1210     2.6810     0.4990 ha         1 16K       0.142000
     27 H7           3.1870    -1.5790     0.5410 ha         1 16K       0.149000
     28 H9           6.4230     1.0850    -0.5950 ha         1 16K       0.153000
     29 H10          4.7590     2.7620    -1.3250 ha         1 16K       0.128000
     30 H11          2.3370     2.2920    -1.1450 ha         1 16K       0.160000
     31 H14         -7.7960    -0.4920    -0.5530 hc         1 16K       0.062033
     32 H14A        -7.5340    -2.0630     0.2290 hc         1 16K       0.062033
     33 H14B        -7.6130    -0.5880     1.2100 hc         1 16K       0.062033
     34 H15         -1.9130    -2.5440    -0.0020 hc         1 16K       0.058367
     35 H15A        -3.0720    -3.2550    -1.1270 hc         1 16K       0.058367
     36 H15B        -2.0550    -1.9170    -1.6620 hc         1 16K       0.058367
@<TRIPOS>BOND
     1     1     2 1   
     2     1    21 1   
     3     2     5 1   
     4     2    20 2   
     5     3     5 ar  
     6     3     8 ar  
     7     4    11 1   
     8     5    12 ar  
     9     6     8 ar  
    10     6    10 ar  
    11     7    11 1   
    12     8     9 1   
    13     9    14 1   
    14     9    24 1   
    15    10    12 ar  
    16    10    25 1   
    17    11    16 1   
    18    12    26 1   
    19    13    20 1   
    20    13    21 2   
    21    14    15 ar  
    22    14    19 ar  
    23    15    16 ar  
    24    15    27 1   
    25    16    17 ar  
    26    17    18 ar  
    27    17    28 1   
    28    18    19 ar  
    29    18    29 1   
    30    19    30 1   
    31    20    23 1   
    32    21    22 1   
    33    22    31 1   
    34    22    32 1   
    35    22    33 1   
    36    23    34 1   
    37    23    35 1   
    38    23    36 1   
@<TRIPOS>SUBSTRUCTURE
     1 16K         1 TEMP              0 ****  ****    0 ROOT
