@<TRIPOS>MOLECULE
16K
   36    38     1     0     0
SMALL
abcg2


@<TRIPOS>ATOM
      1 S           -4.9440     0.7050     0.3100 ss         1 16K      -0.025400
      2 C1          -3.4140    -0.0400    -0.0010 cc         1 16K      -0.335500
      3 N1          -1.0410     0.0910    -0.0060 nb         1 16K      -0.246000
      4 O1           5.2920    -2.6470    -0.0600 o          1 16K      -0.398500
      5 C2          -2.1920     0.7480    -0.0390 ca         1 16K       0.273500
      6 N2           0.1670     2.1270    -0.1110 nb         1 16K      -0.236000
      7 O2           6.9330    -1.2900    -0.1730 o          1 16K      -0.398500
      8 C3           0.0840     0.8040    -0.0540 ca         1 16K       0.390900
      9 N3           1.2180     0.0440    -0.0310 nu         1 16K      -0.929900
     10 C4          -0.9910     2.7780    -0.1370 ca         1 16K       0.151900
     11 N4           5.7500    -1.5310    -0.1260 no         1 16K       0.692200
     12 C5          -2.2140     2.1470    -0.1090 ca         1 16K      -0.267000
     13 N5          -4.8930    -1.8030    -0.0780 nd         1 16K      -0.660000
     14 C6           2.5560     0.3900    -0.1020 ca         1 16K       0.321000
     15 C7           3.4680    -0.6680    -0.0810 ca         1 16K      -0.122000
     16 C8           4.8230    -0.4060    -0.1500 ca         1 16K      -0.142200
     17 C9           5.3290     0.8820    -0.2420 ca         1 16K      -0.081000
     18 C10          4.4150     1.9220    -0.2630 ca         1 16K      -0.094000
     19 C11          3.0480     1.6970    -0.1930 ca         1 16K      -0.102000
     20 C12         -3.5970    -1.3900    -0.1840 cd         1 16K       0.369300
     21 C13         -5.7090    -0.8280     0.1780 cc         1 16K       0.458700
     22 C14         -7.1820    -0.9750     0.3260 c3         1 16K      -0.134400
     23 C15         -2.5560    -2.4150    -0.4830 c3         1 16K      -0.121400
     24 HN3          1.0260    -0.9450     0.0220 hn         1 16K       0.516000
     25 H4          -0.9330     3.8590    -0.1860 h4         1 16K       0.026100
     26 H5          -3.1290     2.7210    -0.1510 ha         1 16K       0.142000
     27 H7           3.1080    -1.6860    -0.0110 ha         1 16K       0.149000
     28 H9           6.3890     1.0760    -0.2980 ha         1 16K       0.153000
     29 H10          4.7730     2.9400    -0.3350 ha         1 16K       0.128000
     30 H11          2.3660     2.5300    -0.2090 ha         1 16K       0.160000
     31 H14         -7.6920    -0.6760    -0.5920 hc         1 16K       0.062033
     32 H14A        -7.4280    -2.0140     0.5290 hc         1 16K       0.062033
     33 H14B        -7.5690    -0.3570     1.1340 hc         1 16K       0.062033
     34 H15         -2.0120    -2.6960     0.4200 hc         1 16K       0.058367
     35 H15A        -3.0310    -3.3100    -0.8820 hc         1 16K       0.058367
     36 H15B        -1.8180    -2.0540    -1.1950 hc         1 16K       0.058367
@<TRIPOS>BOND
     1     1     2 1   
     2     1    21 1   
     3     2     5 1   
     4     2    20 2   
     5     3     5 ar  
     6     3     8 ar  
     7     4    11 1   
     8     5    12 ar  
     9     6     8 ar  
    10     6    10 ar  
    11     7    11 1   
    12     8     9 1   
    13     9    14 1   
    14     9    24 1   
    15    10    12 ar  
    16    10    25 1   
    17    11    16 1   
    18    12    26 1   
    19    13    20 1   
    20    13    21 2   
    21    14    15 ar  
    22    14    19 ar  
    23    15    16 ar  
    24    15    27 1   
    25    16    17 ar  
    26    17    18 ar  
    27    17    28 1   
    28    18    19 ar  
    29    18    29 1   
    30    19    30 1   
    31    20    23 1   
    32    21    22 1   
    33    22    31 1   
    34    22    32 1   
    35    22    33 1   
    36    23    34 1   
    37    23    35 1   
    38    23    36 1   
@<TRIPOS>SUBSTRUCTURE
     1 16K         1 TEMP              0 ****  ****    0 ROOT
