@<TRIPOS>MOLECULE
16L
   41    42     1     0     0
SMALL
abcg2


@<TRIPOS>ATOM
      1 CAB          6.2280     1.5120     0.0090 c3         1 16L      -0.041300
      2 CAQ          5.0120     0.6310    -0.0100 ca         1 16L      -0.138800
      3 CAL          3.7340     1.1730     0.0000 ca         1 16L      -0.061500
      4 CAV          5.1400    -0.7590    -0.0380 ca         1 16L       0.146100
      5 OAE          6.3410    -1.3720    -0.0510 oh         1 16L      -0.537100
      6 CAR          4.0120    -1.5920    -0.0540 ca         1 16L      -0.138800
      7 CAC          4.1750    -3.0830    -0.0840 c3         1 16L      -0.041300
      8 CAM          2.7580    -1.0070    -0.0430 ca         1 16L      -0.061500
      9 CAT          2.5860     0.3810    -0.0160 ca         1 16L      -0.087800
     10 CAH          1.2820     1.0350    -0.0060 ce         1 16L      -0.137200
     11 CAG          0.0830     0.4350    -0.0180 cf         1 16L      -0.162200
     12 CAS         -1.2170     1.1050    -0.0110 ca         1 16L      -0.020800
     13 CAN         -2.3600     0.3000    -0.0500 ca         1 16L      -0.126000
     14 CAJ         -1.3630     2.4940     0.0310 ca         1 16L      -0.128000
     15 CAI         -2.6290     3.0540     0.0320 ca         1 16L      -0.083000
     16 CAK         -3.7610     2.2560    -0.0070 ca         1 16L      -0.169000
     17 CAU         -3.6340     0.8660    -0.0490 ca         1 16L      -0.018000
     18 NAO         -4.8220     0.1310    -0.0910 ns         1 16L      -0.143000
     19 CAP         -5.0100    -1.2140    -0.1060 c          1 16L       0.609300
     20 OAD         -4.1060    -2.0330    -0.0880 o          1 16L      -0.584100
     21 CAF         -6.4440    -1.6000    -0.1460 ce         1 16L      -0.307200
     22 CAA         -6.8200    -2.8740    -0.1620 c2         1 16L      -0.224000
     23 H1           6.8520     1.3380     0.8900 hc         1 16L       0.042533
     24 H2           6.8600     1.3660    -0.8710 hc         1 16L       0.042533
     25 H3           5.9420     2.5620     0.0250 hc         1 16L       0.042533
     26 H4           3.6300     2.2530     0.0210 ha         1 16L       0.113000
     27 H5           7.0610    -0.7320    -0.0380 ho         1 16L       0.466000
     28 H6           4.7210    -3.4470     0.7880 hc         1 16L       0.042533
     29 H7           3.2040    -3.5760    -0.0980 hc         1 16L       0.042533
     30 H8           4.7270    -3.4120    -0.9660 hc         1 16L       0.042533
     31 H9           1.8950    -1.6620    -0.0560 ha         1 16L       0.113000
     32 H10          1.3290     2.1200     0.0100 ha         1 16L       0.168000
     33 H11          0.0310    -0.6490    -0.0360 ha         1 16L       0.177000
     34 H12         -2.2400    -0.7710    -0.0810 ha         1 16L       0.147000
     35 H13         -0.4990     3.1440     0.0630 ha         1 16L       0.114000
     36 H14         -2.7420     4.1300     0.0640 ha         1 16L       0.112000
     37 H15         -4.7440     2.7120    -0.0050 ha         1 16L       0.108000
     38 H16         -5.6590     0.6950    -0.1080 hn         1 16L       0.150000
     39 H17         -7.1880    -0.8120    -0.1610 ha         1 16L       0.176000
     40 H19         -7.8660    -3.1440    -0.1900 ha         1 16L       0.177500
     41 H20         -6.1020    -3.6830    -0.1470 ha         1 16L       0.177500
@<TRIPOS>BOND
     1     1     2 1   
     2     1    23 1   
     3     1    24 1   
     4     1    25 1   
     5     2     3 ar  
     6     2     4 ar  
     7     3     9 ar  
     8     3    26 1   
     9     4     5 1   
    10     4     6 ar  
    11     5    27 1   
    12     6     7 1   
    13     6     8 ar  
    14     7    28 1   
    15     7    29 1   
    16     7    30 1   
    17     8     9 ar  
    18     8    31 1   
    19     9    10 1   
    20    10    11 2   
    21    10    32 1   
    22    11    12 1   
    23    11    33 1   
    24    12    13 ar  
    25    12    14 ar  
    26    13    17 ar  
    27    13    34 1   
    28    14    15 ar  
    29    14    35 1   
    30    15    16 ar  
    31    15    36 1   
    32    16    17 ar  
    33    16    37 1   
    34    17    18 1   
    35    18    19 1   
    36    18    38 1   
    37    19    20 2   
    38    19    21 1   
    39    21    22 2   
    40    21    39 1   
    41    22    40 1   
    42    22    41 1   
@<TRIPOS>SUBSTRUCTURE
     1 16L         1 TEMP              0 ****  ****    0 ROOT
