@<TRIPOS>MOLECULE
16L
   41    42     1     0     0
SMALL
No Charge or Current Charge


@<TRIPOS>ATOM
      1 CAB          6.3290     1.5380    -0.2970 c3         1 16L      -0.041300
      2 CAQ          5.1130     0.6260    -0.1470 ca         1 16L      -0.138800
      3 CAL          3.8260     1.1970    -0.0990 ca         1 16L      -0.061500
      4 CAV          5.2510    -0.7770    -0.0550 ca         1 16L       0.146100
      5 OAE          6.4920    -1.3480    -0.0990 oh         1 16L      -0.537100
      6 CAR          4.1100    -1.5960     0.0850 ca         1 16L      -0.138800
      7 CAC          4.2440    -3.1140     0.1900 c3         1 16L      -0.041300
      8 CAM          2.8320    -1.0060     0.1300 ca         1 16L      -0.061500
      9 CAT          2.6790     0.3920     0.0360 ca         1 16L      -0.087800
     10 CAH          1.3350     1.0420     0.0830 ce         1 16L      -0.137200
     11 CAG          0.0970     0.4700     0.0170 cf         1 16L      -0.162200
     12 CAS         -1.2380     1.1030     0.0610 ca         1 16L      -0.020800
     13 CAN         -2.3890     0.2920    -0.0370 ca         1 16L      -0.126000
     14 CAJ         -1.3960     2.4970     0.1990 ca         1 16L      -0.128000
     15 CAI         -2.6780     3.0660     0.2370 ca         1 16L      -0.083000
     16 CAK         -3.8150     2.2490     0.1380 ca         1 16L      -0.169000
     17 CAU         -3.6840     0.8560     0.0010 ca         1 16L      -0.018000
     18 NAO         -4.8820     0.0930    -0.0940 ns         1 16L      -0.143000
     19 CAP         -5.1200    -1.2680    -0.2310 c          1 16L       0.609300
     20 OAD         -4.2470    -2.1250    -0.3000 o          1 16L      -0.584100
     21 CAF         -6.5740    -1.6180    -0.2890 ce         1 16L      -0.307200
     22 CAA         -7.0550    -2.8800    -0.4190 c2         1 16L      -0.224000
     23 H1           7.0110     1.4350     0.5560 hc         1 16L       0.042533
     24 H2           6.8890     1.3070    -1.2120 hc         1 16L       0.042533
     25 H3           6.0410     2.5950    -0.3530 hc         1 16L       0.042533
     26 H4           3.7160     2.2770    -0.1710 ha         1 16L       0.113000
     27 H5           7.1540    -0.6330    -0.1970 ho         1 16L       0.466000
     28 H6           4.8460    -3.3960     1.0620 hc         1 16L       0.042533
     29 H7           3.2690    -3.6050     0.2930 hc         1 16L       0.042533
     30 H8           4.7280    -3.5290    -0.7020 hc         1 16L       0.042533
     31 H9           1.9610    -1.6450     0.2470 ha         1 16L       0.113000
     32 H10          1.3890     2.1260     0.1750 ha         1 16L       0.168000
     33 H11          0.0560    -0.6140    -0.0900 ha         1 16L       0.177000
     34 H12         -2.2560    -0.7790    -0.1430 ha         1 16L       0.147000
     35 H13         -0.5340     3.1530     0.2780 ha         1 16L       0.114000
     36 H14         -2.7910     4.1430     0.3440 ha         1 16L       0.112000
     37 H15         -4.8020     2.7040     0.1700 ha         1 16L       0.108000
     38 H16         -5.7220     0.6540    -0.0530 hn         1 16L       0.150000
     39 H17         -7.2650    -0.7780    -0.2200 ha         1 16L       0.176000
     40 H19         -8.1270    -3.0850    -0.4570 ha         1 16L       0.177500
     41 H20         -6.3960    -3.7470    -0.4910 ha         1 16L       0.177500
@<TRIPOS>BOND
     1     1     2 1   
     2     1    23 1   
     3     1    24 1   
     4     1    25 1   
     5     2     3 ar  
     6     2     4 ar  
     7     3     9 ar  
     8     3    26 1   
     9     4     5 1   
    10     4     6 ar  
    11     5    27 1   
    12     6     7 1   
    13     6     8 ar  
    14     7    28 1   
    15     7    29 1   
    16     7    30 1   
    17     8     9 ar  
    18     8    31 1   
    19     9    10 1   
    20    10    11 2   
    21    10    32 1   
    22    11    12 1   
    23    11    33 1   
    24    12    13 ar  
    25    12    14 ar  
    26    13    17 ar  
    27    13    34 1   
    28    14    15 ar  
    29    14    35 1   
    30    15    16 ar  
    31    15    36 1   
    32    16    17 ar  
    33    16    37 1   
    34    17    18 1   
    35    18    19 1   
    36    18    38 1   
    37    19    20 2   
    38    19    21 1   
    39    21    22 2   
    40    21    39 1   
    41    22    40 1   
    42    22    41 1   
@<TRIPOS>SUBSTRUCTURE
     1 16L         1 TEMP              0 ****  ****    0 ROOT
