@<TRIPOS>MOLECULE
16M
   19    19     1     0     0
SMALL
abcg2


@<TRIPOS>ATOM
      1 C9           3.7720     0.3550     0.0370 c3         1 16M      -0.082100
      2 C8           2.3030     0.7410     0.0070 c3         1 16M       0.050600
      3 S7           1.3170    -0.7660    -0.2110 ss         1 16M      -0.185000
      4 C4          -0.3520    -0.2130    -0.1060 ca         1 16M      -0.085000
      5 C3          -1.3390    -1.1970    -0.0120 ca         1 16M      -0.110500
      6 C5          -0.7290     1.1280    -0.1290 ca         1 16M      -0.110500
      7 C6          -2.0730     1.4740    -0.0560 ca         1 16M      -0.097500
      8 C1          -3.0520     0.4960     0.0340 ca         1 16M      -0.117000
      9 C2          -2.6760    -0.8420     0.0540 ca         1 16M      -0.097500
     10 H1           3.9930    -0.3210     0.8620 hc         1 16M       0.046033
     11 H2           4.0790    -0.1260    -0.8920 hc         1 16M       0.046033
     12 H3           4.3800     1.2510     0.1650 hc         1 16M       0.046033
     13 H4           2.0120     1.2250     0.9410 h1         1 16M       0.061700
     14 H5           2.1090     1.4350    -0.8110 h1         1 16M       0.061700
     15 H6          -1.0610    -2.2440     0.0140 ha         1 16M       0.116500
     16 H7           0.0110     1.9120    -0.2060 ha         1 16M       0.116500
     17 H8          -2.3480     2.5210    -0.0720 ha         1 16M       0.112000
     18 H9          -4.0980     0.7710     0.0900 ha         1 16M       0.114000
     19 H10         -3.4270    -1.6170     0.1280 ha         1 16M       0.112000
@<TRIPOS>BOND
     1     1     2 1   
     2     1    10 1   
     3     1    11 1   
     4     1    12 1   
     5     2     3 1   
     6     2    13 1   
     7     2    14 1   
     8     3     4 1   
     9     4     5 ar  
    10     4     6 ar  
    11     5     9 ar  
    12     5    15 1   
    13     6     7 ar  
    14     6    16 1   
    15     7     8 ar  
    16     7    17 1   
    17     8     9 ar  
    18     8    18 1   
    19     9    19 1   
@<TRIPOS>SUBSTRUCTURE
     1 16M         1 TEMP              0 ****  ****    0 ROOT
