@<TRIPOS>MOLECULE
16M
   19    19     1     0     0
SMALL
No Charge or Current Charge


@<TRIPOS>ATOM
      1 C9           3.8520     0.3850    -0.0010 c3         1 16M      -0.082100
      2 C8           2.3560     0.7400    -0.0030 c3         1 16M       0.050600
      3 S7           1.3300    -0.7970    -0.0080 ss         1 16M      -0.185000
      4 C4          -0.3810    -0.2470    -0.0110 ca         1 16M      -0.085000
      5 C3          -1.3900    -1.2280    -0.0140 ca         1 16M      -0.110500
      6 C5          -0.7450     1.1170    -0.0090 ca         1 16M      -0.110500
      7 C6          -2.1020     1.4870    -0.0120 ca         1 16M      -0.097500
      8 C1          -3.1030     0.5010    -0.0150 ca         1 16M      -0.117000
      9 C2          -2.7460    -0.8580    -0.0160 ca         1 16M      -0.097500
     10 H1           4.1080    -0.2030     0.8890 hc         1 16M       0.046033
     11 H2           4.1120    -0.2000    -0.8910 hc         1 16M       0.046033
     12 H3           4.4600     1.2970     0.0020 hc         1 16M       0.046033
     13 H4           2.1160     1.3300     0.8900 h1         1 16M       0.061700
     14 H5           2.1200     1.3330    -0.8960 h1         1 16M       0.061700
     15 H6          -1.1210    -2.2820    -0.0150 ha         1 16M       0.116500
     16 H7           0.0050     1.9020    -0.0070 ha         1 16M       0.116500
     17 H8          -2.3780     2.5390    -0.0110 ha         1 16M       0.112000
     18 H9          -4.1520     0.7890    -0.0170 ha         1 16M       0.114000
     19 H10         -3.5190    -1.6230    -0.0190 ha         1 16M       0.112000
@<TRIPOS>BOND
     1     1     2 1   
     2     1    10 1   
     3     1    11 1   
     4     1    12 1   
     5     2     3 1   
     6     2    13 1   
     7     2    14 1   
     8     3     4 1   
     9     4     5 ar  
    10     4     6 ar  
    11     5     9 ar  
    12     5    15 1   
    13     6     7 ar  
    14     6    16 1   
    15     7     8 ar  
    16     7    17 1   
    17     8     9 ar  
    18     8    18 1   
    19     9    19 1   
@<TRIPOS>SUBSTRUCTURE
     1 16M         1 TEMP              0 ****  ****    0 ROOT
