@<TRIPOS>MOLECULE
16N
   19    20     1     0     0
SMALL
No Charge or Current Charge


@<TRIPOS>ATOM
      1 C1          -0.9880    -1.3990     0.0120 ca         1 16N      -0.098000
      2 C2          -2.2010    -0.6870     0.0910 ca         1 16N      -0.112500
      3 C6           0.2160    -0.6810    -0.0550 ca         1 16N      -0.088300
      4 C7           1.6050    -1.2540    -0.1530 c5         1 16N      -0.033100
      5 C8           2.4660    -0.0020     0.2660 c5         1 16N      -0.078400
      6 C9           1.6160     1.2620    -0.1390 c5         1 16N      -0.033100
      7 C5           0.2220     0.6990    -0.0470 ca         1 16N      -0.088300
      8 C4          -0.9770     1.4260     0.0280 ca         1 16N      -0.098000
      9 C3          -2.1960     0.7240     0.1000 ca         1 16N      -0.112500
     10 H1          -0.9850    -2.4870     0.0020 ha         1 16N       0.112000
     11 H2          -3.1440    -1.2270     0.1450 ha         1 16N       0.110000
     12 H3           1.7670    -2.1100     0.5120 hc         1 16N       0.051700
     13 H4           1.8330    -1.5770    -1.1760 hc         1 16N       0.051700
     14 H5           2.6270    -0.0090     1.3510 hc         1 16N       0.045200
     15 H6           3.4590    -0.0030    -0.1970 hc         1 16N       0.045200
     16 H7           1.7840     2.1090     0.5360 hc         1 16N       0.051700
     17 H8           1.8460     1.5950    -1.1570 hc         1 16N       0.051700
     18 H9          -0.9650     2.5140     0.0310 ha         1 16N       0.112000
     19 H10         -3.1340     1.2700     0.1590 ha         1 16N       0.110000
@<TRIPOS>BOND
     1     1     2 ar  
     2     1     3 ar  
     3     1    10 1   
     4     2     9 ar  
     5     2    11 1   
     6     3     4 1   
     7     3     7 ar  
     8     4     5 1   
     9     4    12 1   
    10     4    13 1   
    11     5     6 1   
    12     5    14 1   
    13     5    15 1   
    14     6     7 1   
    15     6    16 1   
    16     6    17 1   
    17     7     8 ar  
    18     8     9 ar  
    19     8    18 1   
    20     9    19 1   
@<TRIPOS>SUBSTRUCTURE
     1 16N         1 TEMP              0 ****  ****    0 ROOT
