@<TRIPOS>MOLECULE
16N
   19    20     1     0     0
SMALL
bcc


@<TRIPOS>ATOM
      1 C1          -0.9920    -1.3860     0.0120 ca         1 16N      -0.116000
      2 C2          -2.1880    -0.6770     0.0820 ca         1 16N      -0.130500
      3 C6           0.2040    -0.6880    -0.0440 ca         1 16N      -0.088300
      4 C7           1.6090    -1.2180    -0.1370 c5         1 16N      -0.033100
      5 C8           2.4640    -0.0020     0.2590 c5         1 16N      -0.078400
      6 C9           1.6190     1.2260    -0.1230 c5         1 16N      -0.033100
      7 C5           0.2100     0.7060    -0.0350 ca         1 16N      -0.088300
      8 C4          -0.9810     1.4130     0.0290 ca         1 16N      -0.116000
      9 C3          -2.1830     0.7130     0.0900 ca         1 16N      -0.130500
     10 H1          -1.0020    -2.4690     0.0090 ha         1 16N       0.130000
     11 H2          -3.1280    -1.2120     0.1350 ha         1 16N       0.128000
     12 H3           1.7850    -2.0840     0.5020 hc         1 16N       0.051700
     13 H4           1.8250    -1.5310    -1.1630 hc         1 16N       0.051700
     14 H5           2.6240    -0.0090     1.3400 hc         1 16N       0.045200
     15 H6           3.4460    -0.0030    -0.2140 hc         1 16N       0.045200
     16 H7           1.8020     2.0840     0.5250 hc         1 16N       0.051700
     17 H8           1.8370     1.5490    -1.1460 hc         1 16N       0.051700
     18 H9          -0.9820     2.4970     0.0380 ha         1 16N       0.130000
     19 H10         -3.1180     1.2550     0.1510 ha         1 16N       0.128000
@<TRIPOS>BOND
     1     1     2 ar  
     2     1     3 ar  
     3     1    10 1   
     4     2     9 ar  
     5     2    11 1   
     6     3     4 1   
     7     3     7 ar  
     8     4     5 1   
     9     4    12 1   
    10     4    13 1   
    11     5     6 1   
    12     5    14 1   
    13     5    15 1   
    14     6     7 1   
    15     6    16 1   
    16     6    17 1   
    17     7     8 ar  
    18     8     9 ar  
    19     8    18 1   
    20     9    19 1   
@<TRIPOS>SUBSTRUCTURE
     1 16N         1 TEMP              0 ****  ****    0 ROOT
