@<TRIPOS>MOLECULE
16O
   42    43     1     0     0
SMALL
No Charge or Current Charge


@<TRIPOS>ATOM
      1 C1          -3.0860    -0.4590     0.3730 c6         1 16O       0.299700
      2 N1          -1.8780    -1.2070     0.0430 ns         1 16O      -0.429900
      3 S1          -3.0700    -3.6110    -0.0680 s          1 16O      -0.608400
      4 Br1          6.3560     1.7590     0.1120 br         1 16O      -0.085100
      5 C2          -2.7500     0.8660     1.1400 c6         1 16O       0.101300
      6 N2          -0.5460    -2.9380    -0.6580 ns         1 16O      -0.227900
      7 O2          -2.1410     0.6220     2.4310 oh         1 16O      -0.713000
      8 C3          -4.0590     1.6830     1.3310 c6         1 16O       0.138300
      9 N3           0.5580    -2.1030    -0.7860 n2         1 16O      -0.482300
     10 O3          -3.7760     2.9230     2.0010 oh         1 16O      -0.666000
     11 C4          -4.7480     1.9400    -0.0410 c6         1 16O       0.142300
     12 O4          -5.9750     2.6660     0.1620 oh         1 16O      -0.714000
     13 C5          -4.9770     0.5750    -0.7630 c6         1 16O       0.178300
     14 O5          -3.7130    -0.1330    -0.8840 os         1 16O      -0.454000
     15 C6          -5.5840     0.7560    -2.1940 c3         1 16O       0.172600
     16 O6          -5.7640    -0.4880    -2.9040 oh         1 16O      -0.703000
     17 C7          -1.7980    -2.5390    -0.2420 cs         1 16O       0.492400
     18 C8           1.4830    -2.1260     0.1270 ce         1 16O       0.409800
     19 C9           2.6460    -1.1860     0.1000 ca         1 16O      -0.125900
     20 C10          3.6030    -1.2430     1.1360 ca         1 16O      -0.082500
     21 C11          4.7040    -0.3680     1.1390 ca         1 16O      -0.088000
     22 C12          4.8580     0.5700     0.1070 ca         1 16O      -0.006900
     23 C13          3.9130     0.6380    -0.9290 ca         1 16O      -0.088000
     24 C14          2.8110    -0.2360    -0.9340 ca         1 16O      -0.082500
     25 H1          -3.7560    -1.0860     0.9840 h2         1 16O       0.106700
     26 HN1         -1.0390    -0.6810    -0.1660 hn         1 16O       0.332500
     27 H2          -2.0650     1.4560     0.5110 h1         1 16O       0.051700
     28 HN2         -0.4740    -3.9270    -0.8940 hn         1 16O       0.350500
     29 HO2         -1.3270     0.0840     2.2840 ho         1 16O       0.516000
     30 H3          -4.7430     1.0790     1.9480 h1         1 16O       0.061700
     31 HO3         -3.0870     2.6900     2.6670 ho         1 16O       0.467000
     32 H4          -4.0630     2.5390    -0.6600 h1         1 16O       0.052700
     33 HO4         -5.7620     3.3290     0.8650 ho         1 16O       0.526000
     34 H5          -5.6740    -0.0390    -0.1720 h1         1 16O       0.072700
     35 H6          -6.5500     1.2700    -2.0960 h1         1 16O       0.035200
     36 H6A         -4.9200     1.4200    -2.7630 h1         1 16O       0.035200
     37 HO6         -6.0820    -0.2590    -3.8090 ho         1 16O       0.503000
     38 H8           1.4320    -2.8220     0.9670 h4         1 16O      -0.002200
     39 H10          3.4940    -1.9660     1.9420 ha         1 16O       0.123000
     40 H11          5.4360    -0.4200     1.9420 ha         1 16O       0.134000
     41 H13          4.0320     1.3650    -1.7290 ha         1 16O       0.134000
     42 H14          2.0890    -0.1700    -1.7450 ha         1 16O       0.123000
@<TRIPOS>BOND
     1     1     2 1   
     2     1     5 1   
     3     1    14 1   
     4     1    25 1   
     5     2    17 1   
     6     2    26 1   
     7     3    17 2   
     8     4    22 1   
     9     5     7 1   
    10     5     8 1   
    11     5    27 1   
    12     6     9 1   
    13     6    17 1   
    14     6    28 1   
    15     7    29 1   
    16     8    10 1   
    17     8    11 1   
    18     8    30 1   
    19     9    18 2   
    20    10    31 1   
    21    11    12 1   
    22    11    13 1   
    23    11    32 1   
    24    12    33 1   
    25    13    14 1   
    26    13    15 1   
    27    13    34 1   
    28    15    16 1   
    29    15    35 1   
    30    15    36 1   
    31    16    37 1   
    32    18    19 1   
    33    18    38 1   
    34    19    20 ar  
    35    19    24 ar  
    36    20    21 ar  
    37    20    39 1   
    38    21    22 ar  
    39    21    40 1   
    40    22    23 ar  
    41    23    24 ar  
    42    23    41 1   
    43    24    42 1   
@<TRIPOS>SUBSTRUCTURE
     1 16O         1 TEMP              0 ****  ****    0 ROOT
