@<TRIPOS>MOLECULE
16O
   42    43     1     0     0
SMALL
abcg2


@<TRIPOS>ATOM
      1 C1          -3.2030    -0.2230     0.4810 c6         1 16O       0.299700
      2 N1          -1.9350    -0.8740     0.4840 ns         1 16O      -0.429900
      3 S1          -2.9850    -3.3330     0.6960 s          1 16O      -0.608400
      4 BR1          6.6630     1.3130    -0.3560 br         1 16O      -0.085100
      5 C2          -3.1220     1.1080     1.2330 c6         1 16O       0.101300
      6 N2          -0.4870    -2.6290     0.4160 ns         1 16O      -0.227900
      7 O2          -2.8340     0.9170     2.5940 oh         1 16O      -0.713000
      8 C3          -4.4760     1.7990     1.1430 c6         1 16O       0.138300
      9 N3           0.5280    -1.7620     0.2880 n2         1 16O      -0.482300
     10 O3          -4.4430     3.0980     1.6820 oh         1 16O      -0.666000
     11 C4          -4.9310     1.9170    -0.3070 c6         1 16O       0.142300
     12 O4          -6.2470     2.4050    -0.3890 oh         1 16O      -0.714000
     13 C5          -4.8840     0.5430    -0.9760 c6         1 16O       0.178300
     14 O5          -3.5840     0.0020    -0.8530 os         1 16O      -0.454000
     15 C6          -5.2170     0.6230    -2.4500 c3         1 16O       0.172600
     16 O6          -5.2330    -0.6790    -2.9850 oh         1 16O      -0.703000
     17 C7          -1.7650    -2.2030     0.5190 cs         1 16O       0.492400
     18 C8           1.7070    -2.2320     0.1980 ce         1 16O       0.409800
     19 C9           2.8650    -1.3560     0.0660 ca         1 16O      -0.125900
     20 C10          4.1270    -1.9330    -0.0580 ca         1 16O      -0.082500
     21 C11          5.2630    -1.1490    -0.1840 ca         1 16O      -0.088000
     22 C12          5.1290     0.2310    -0.1850 ca         1 16O      -0.006900
     23 C13          3.8800     0.8310    -0.0610 ca         1 16O      -0.088000
     24 C14          2.7560     0.0360     0.0640 ca         1 16O      -0.082500
     25 H1          -3.9230    -0.8820     0.9810 h2         1 16O       0.106700
     26 HN1         -1.1110    -0.3160     0.2930 hn         1 16O       0.332500
     27 H2          -2.3670     1.7430     0.7440 h1         1 16O       0.051700
     28 HN2         -0.3230    -3.6300     0.4470 hn         1 16O       0.350500
     29 HO2         -1.9010     0.7060     2.6940 ho         1 16O       0.516000
     30 H3          -5.2100     1.1740     1.6770 h1         1 16O       0.061700
     31 HO3         -4.3410     3.0320     2.6360 ho         1 16O       0.467000
     32 H4          -4.2290     2.5820    -0.8380 h1         1 16O       0.052700
     33 HO4         -6.2830     3.2430     0.0840 ho         1 16O       0.526000
     34 H5          -5.6150    -0.1170    -0.4790 h1         1 16O       0.072700
     35 H6          -6.1890     1.1160    -2.5580 h1         1 16O       0.035200
     36 H6A         -4.4740     1.2610    -2.9490 h1         1 16O       0.035200
     37 HO6         -5.5290    -0.6180    -3.8970 ho         1 16O       0.503000
     38 H8           1.9000    -3.3060     0.2170 h4         1 16O      -0.002200
     39 H10          4.2310    -3.0120    -0.0570 ha         1 16O       0.123000
     40 H11          6.2330    -1.6180    -0.2810 ha         1 16O       0.134000
     41 H13          3.7780     1.9080    -0.0600 ha         1 16O       0.134000
     42 H14          1.7870     0.5060     0.1630 ha         1 16O       0.123000
@<TRIPOS>BOND
     1     1     2 1   
     2     1     5 1   
     3     1    14 1   
     4     1    25 1   
     5     2    17 1   
     6     2    26 1   
     7     3    17 2   
     8     4    22 1   
     9     5     7 1   
    10     5     8 1   
    11     5    27 1   
    12     6     9 1   
    13     6    17 1   
    14     6    28 1   
    15     7    29 1   
    16     8    10 1   
    17     8    11 1   
    18     8    30 1   
    19     9    18 2   
    20    10    31 1   
    21    11    12 1   
    22    11    13 1   
    23    11    32 1   
    24    12    33 1   
    25    13    14 1   
    26    13    15 1   
    27    13    34 1   
    28    15    16 1   
    29    15    35 1   
    30    15    36 1   
    31    16    37 1   
    32    18    19 1   
    33    18    38 1   
    34    19    20 ar  
    35    19    24 ar  
    36    20    21 ar  
    37    20    39 1   
    38    21    22 ar  
    39    21    40 1   
    40    22    23 ar  
    41    23    24 ar  
    42    23    41 1   
    43    24    42 1   
@<TRIPOS>SUBSTRUCTURE
     1 16O         1 TEMP              0 ****  ****    0 ROOT
