@<TRIPOS>MOLECULE
16P
   50    49     1     0     0
SMALL
bcc


@<TRIPOS>ATOM
      1 C1           8.2060     0.9230     1.0220 c3         1 16P      -0.091100
      2 C2           7.3760     1.1430    -0.2220 c3         1 16P       0.138400
      3 O1           6.4270     0.1080    -0.3390 os         1 16P      -0.401600
      4 C3           5.6080     0.2480    -1.4700 c3         1 16P       0.140400
      5 C4           4.6600    -0.9190    -1.5660 c3         1 16P       0.138400
      6 O2           3.7770    -0.9130    -0.4730 os         1 16P      -0.386100
      7 C5           2.8490    -1.9660    -0.5260 c3         1 16P       0.138400
      8 C6           1.9990    -1.9680     0.7170 c3         1 16P       0.139400
      9 O3           1.2290    -0.7940     0.7770 os         1 16P      -0.387600
     10 C7           0.3610    -0.7770     1.8820 c3         1 16P       0.138900
     11 C8          -0.3720     0.5370     1.9420 c3         1 16P       0.138900
     12 O4          -1.2090     0.6750     0.8220 os         1 16P      -0.387600
     13 C9          -1.9610     1.8610     0.8550 c3         1 16P       0.139400
     14 C10         -2.8220     1.9560    -0.3780 c3         1 16P       0.138400
     15 O5          -3.7750     0.9240    -0.3780 os         1 16P      -0.386100
     16 C11         -4.6390     0.9890    -1.4830 c3         1 16P       0.138400
     17 C12         -5.6100    -0.1630    -1.4440 c3         1 16P       0.140400
     18 O6          -6.4460    -0.0450    -0.3220 os         1 16P      -0.401600
     19 C13         -7.4010    -1.0790    -0.2440 c3         1 16P       0.138400
     20 C14         -8.2500    -0.8830     0.9920 c3         1 16P      -0.091100
     21 H11          8.9480     1.7160     1.1170 hc         1 16P       0.042367
     22 H12          7.5890     0.9340     1.9210 hc         1 16P       0.042367
     23 H13          8.7380    -0.0280     0.9820 hc         1 16P       0.042367
     24 H21          6.8740     2.1200    -0.1740 h1         1 16P       0.016700
     25 H22          8.0250     1.1680    -1.1090 h1         1 16P       0.016700
     26 H31          5.0410     1.1900    -1.4350 h1         1 16P       0.027200
     27 H32          6.2060     0.2750    -2.3920 h1         1 16P       0.027200
     28 H41          4.1140    -0.8380    -2.5170 h1         1 16P       0.026200
     29 H42          5.2260    -1.8610    -1.6070 h1         1 16P       0.026200
     30 H51          2.2120    -1.8840    -1.4180 h1         1 16P       0.027200
     31 H52          3.3580    -2.9380    -0.5880 h1         1 16P       0.027200
     32 H61          1.3580    -2.8600     0.6860 h1         1 16P       0.027450
     33 H62          2.6350    -2.0650     1.6090 h1         1 16P       0.027450
     34 H71         -0.3560    -1.6090     1.8290 h1         1 16P       0.027950
     35 H72          0.9150    -0.8960     2.8230 h1         1 16P       0.027950
     36 H81         -0.9540     0.5570     2.8750 h1         1 16P       0.027950
     37 H82          0.3480     1.3650     1.9990 h1         1 16P       0.027950
     38 H91         -2.5890     1.9020     1.7570 h1         1 16P       0.027450
     39 H92         -1.3080     2.7440     0.8830 h1         1 16P       0.027450
     40 H101        -3.3080     2.9430    -0.3780 h1         1 16P       0.027200
     41 H102        -2.1940     1.9130    -1.2790 h1         1 16P       0.027200
     42 H111        -5.1870     1.9430    -1.4990 h1         1 16P       0.026200
     43 H112        -4.0790     0.9320    -2.4270 h1         1 16P       0.026200
     44 H121        -6.1930    -0.1480    -2.3760 h1         1 16P       0.027200
     45 H122        -5.0620    -1.1160    -1.4300 h1         1 16P       0.027200
     46 H131        -8.0360    -1.0820    -1.1410 h1         1 16P       0.016700
     47 H132        -6.9040    -2.0580    -0.2100 h1         1 16P       0.016700
     48 H141        -8.9920    -1.6790     1.0600 hc         1 16P       0.042367
     49 H142        -7.6460    -0.9110     1.8990 hc         1 16P       0.042367
     50 H143        -8.7820     0.0680     0.9630 hc         1 16P       0.042367
@<TRIPOS>BOND
     1     1     2 1   
     2     1    21 1   
     3     1    22 1   
     4     1    23 1   
     5     2     3 1   
     6     2    24 1   
     7     2    25 1   
     8     3     4 1   
     9     4     5 1   
    10     4    26 1   
    11     4    27 1   
    12     5     6 1   
    13     5    28 1   
    14     5    29 1   
    15     6     7 1   
    16     7     8 1   
    17     7    30 1   
    18     7    31 1   
    19     8     9 1   
    20     8    32 1   
    21     8    33 1   
    22     9    10 1   
    23    10    11 1   
    24    10    34 1   
    25    10    35 1   
    26    11    12 1   
    27    11    36 1   
    28    11    37 1   
    29    12    13 1   
    30    13    14 1   
    31    13    38 1   
    32    13    39 1   
    33    14    15 1   
    34    14    40 1   
    35    14    41 1   
    36    15    16 1   
    37    16    17 1   
    38    16    42 1   
    39    16    43 1   
    40    17    18 1   
    41    17    44 1   
    42    17    45 1   
    43    18    19 1   
    44    19    20 1   
    45    19    46 1   
    46    19    47 1   
    47    20    48 1   
    48    20    49 1   
    49    20    50 1   
@<TRIPOS>SUBSTRUCTURE
     1 16P         1 TEMP              0 ****  ****    0 ROOT
