@<TRIPOS>MOLECULE
16P
   50    49     1     0     0
SMALL
No Charge or Current Charge


@<TRIPOS>ATOM
      1 C1           8.8040     0.1990     1.3700 c3         1 16P      -0.091100
      2 C2           7.9550     1.0130     0.3800 c3         1 16P       0.161600
      3 O1           6.9690     0.1310    -0.1760 os         1 16P      -0.448000
      4 C3           6.0850     0.7510    -1.1310 c3         1 16P       0.163600
      5 C4           5.0710    -0.3010    -1.6420 c3         1 16P       0.161600
      6 O2           4.1290    -0.5970    -0.5920 os         1 16P      -0.432500
      7 C5           3.1330    -1.5780    -0.9430 c3         1 16P       0.161600
      8 C6           2.1870    -1.7910     0.2630 c3         1 16P       0.162600
      9 O3           1.3480    -0.6290     0.4140 os         1 16P      -0.434000
     10 C7           0.4230    -0.7000     1.5170 c3         1 16P       0.162100
     11 C8          -0.4180     0.5990     1.5570 c3         1 16P       0.162100
     12 O4          -1.3470     0.5920     0.4550 os         1 16P      -0.434000
     13 C9          -2.1860     1.7610     0.3740 c3         1 16P       0.162600
     14 C10         -3.1370     1.6180    -0.8390 c3         1 16P       0.161600
     15 O5          -4.1320     0.6180    -0.5410 os         1 16P      -0.432500
     16 C11         -5.0770     0.3820    -1.6040 c3         1 16P       0.161600
     17 C12         -6.0880    -0.6990    -1.1510 c3         1 16P       0.163600
     18 O6          -6.9690    -0.1350    -0.1580 os         1 16P      -0.448000
     19 C13         -7.9530    -1.0480     0.3500 c3         1 16P       0.161600
     20 C14         -8.7990    -0.2940     1.3880 c3         1 16P      -0.091100
     21 H11          9.5740     0.8350     1.8210 hc         1 16P       0.042367
     22 H12          8.1780    -0.2060     2.1740 hc         1 16P       0.042367
     23 H13          9.3020    -0.6330     0.8590 hc         1 16P       0.042367
     24 H21          7.4770     1.8480     0.9080 h1         1 16P       0.016700
     25 H22          8.6020     1.4200    -0.4080 h1         1 16P       0.016700
     26 H31          5.5440     1.5930    -0.6790 h1         1 16P       0.027200
     27 H32          6.6580     1.1340    -1.9860 h1         1 16P       0.027200
     28 H41          4.5470     0.1080    -2.5160 h1         1 16P       0.026200
     29 H42          5.6080    -1.2050    -1.9580 h1         1 16P       0.026200
     30 H51          2.5490    -1.2530    -1.8150 h1         1 16P       0.027200
     31 H52          3.6120    -2.5340    -1.1900 h1         1 16P       0.027200
     32 H61          1.5710    -2.6810     0.0760 h1         1 16P       0.027450
     33 H62          2.7810    -1.9700     1.1680 h1         1 16P       0.027450
     34 H71         -0.2440    -1.5660     1.4180 h1         1 16P       0.027950
     35 H72          0.9700    -0.7960     2.4650 h1         1 16P       0.027950
     36 H81         -0.9610     0.6400     2.5100 h1         1 16P       0.027950
     37 H82          0.2490     1.4700     1.5060 h1         1 16P       0.027950
     38 H91         -2.7770     1.8860     1.2910 h1         1 16P       0.027450
     39 H92         -1.5710     2.6600     0.2380 h1         1 16P       0.027450
     40 H101        -3.6170     2.5860    -1.0280 h1         1 16P       0.027200
     41 H102        -2.5560     1.3440    -1.7300 h1         1 16P       0.027200
     42 H111        -5.6150     1.3030    -1.8640 h1         1 16P       0.026200
     43 H112        -4.5560     0.0250    -2.5020 h1         1 16P       0.026200
     44 H121        -6.6650    -1.0310    -2.0240 h1         1 16P       0.027200
     45 H122        -5.5450    -1.5650    -0.7510 h1         1 16P       0.027200
     46 H131        -8.6020    -1.4110    -0.4590 h1         1 16P       0.016700
     47 H132        -7.4730    -1.9130     0.8270 h1         1 16P       0.016700
     48 H141        -9.5660    -0.9560     1.8040 hc         1 16P       0.042367
     49 H142        -8.1700     0.0640     2.2120 hc         1 16P       0.042367
     50 H143        -9.2990     0.5660     0.9280 hc         1 16P       0.042367
@<TRIPOS>BOND
     1     1     2 1   
     2     1    21 1   
     3     1    22 1   
     4     1    23 1   
     5     2     3 1   
     6     2    24 1   
     7     2    25 1   
     8     3     4 1   
     9     4     5 1   
    10     4    26 1   
    11     4    27 1   
    12     5     6 1   
    13     5    28 1   
    14     5    29 1   
    15     6     7 1   
    16     7     8 1   
    17     7    30 1   
    18     7    31 1   
    19     8     9 1   
    20     8    32 1   
    21     8    33 1   
    22     9    10 1   
    23    10    11 1   
    24    10    34 1   
    25    10    35 1   
    26    11    12 1   
    27    11    36 1   
    28    11    37 1   
    29    12    13 1   
    30    13    14 1   
    31    13    38 1   
    32    13    39 1   
    33    14    15 1   
    34    14    40 1   
    35    14    41 1   
    36    15    16 1   
    37    16    17 1   
    38    16    42 1   
    39    16    43 1   
    40    17    18 1   
    41    17    44 1   
    42    17    45 1   
    43    18    19 1   
    44    19    20 1   
    45    19    46 1   
    46    19    47 1   
    47    20    48 1   
    48    20    49 1   
    49    20    50 1   
@<TRIPOS>SUBSTRUCTURE
     1 16P         1 TEMP              0 ****  ****    0 ROOT
