@<TRIPOS>MOLECULE
16Q
   19    19     1     0     0
SMALL
No Charge or Current Charge


@<TRIPOS>ATOM
      1 C9           3.6870     0.1140     0.0250 c3         1 16Q      -0.094100
      2 C8           2.3080    -0.5650     0.0240 c3         1 16Q       0.165600
      3 O7           1.3130     0.4730    -0.0030 os         1 16Q      -0.352100
      4 C1          -0.0390     0.1940    -0.0100 ca         1 16Q       0.146100
      5 C2          -0.5450    -1.1250     0.0070 ca         1 16Q      -0.174500
      6 C6          -0.9320     1.2780    -0.0370 ca         1 16Q      -0.174500
      7 C5          -2.3200     1.0580    -0.0460 ca         1 16Q      -0.074000
      8 C4          -2.8200    -0.2540    -0.0290 ca         1 16Q      -0.150000
      9 C3          -1.9340    -1.3450    -0.0030 ca         1 16Q      -0.074000
     10 H1           3.8170     0.7270    -0.8750 hc         1 16Q       0.046700
     11 H2           3.8010     0.7560     0.9070 hc         1 16Q       0.046700
     12 H3           4.4810    -0.6410     0.0450 hc         1 16Q       0.046700
     13 H4           2.2200    -1.2110    -0.8590 h1         1 16Q       0.032700
     14 H5           2.2040    -1.1820     0.9260 h1         1 16Q       0.032700
     15 H6           0.1180    -1.9850     0.0270 ha         1 16Q       0.119500
     16 H7          -0.5450     2.2940    -0.0500 ha         1 16Q       0.119500
     17 H8          -3.0060     1.9030    -0.0660 ha         1 16Q       0.110500
     18 H9          -3.8940    -0.4270    -0.0360 ha         1 16Q       0.114000
     19 H10         -2.3240    -2.3610     0.0110 ha         1 16Q       0.110500
@<TRIPOS>BOND
     1     1     2 1   
     2     1    10 1   
     3     1    11 1   
     4     1    12 1   
     5     2     3 1   
     6     2    13 1   
     7     2    14 1   
     8     3     4 1   
     9     4     5 ar  
    10     4     6 ar  
    11     5     9 ar  
    12     5    15 1   
    13     6     7 ar  
    14     6    16 1   
    15     7     8 ar  
    16     7    17 1   
    17     8     9 ar  
    18     8    18 1   
    19     9    19 1   
@<TRIPOS>SUBSTRUCTURE
     1 16Q         1 TEMP              0 ****  ****    0 ROOT
