@<TRIPOS>MOLECULE
16Q
   19    19     1     0     0
SMALL
bcc


@<TRIPOS>ATOM
      1 C9           3.6290     0.1030     0.0240 c3         1 16Q      -0.094100
      2 C8           2.2580    -0.5310     0.0240 c3         1 16Q       0.142400
      3 O7           1.2920     0.5110    -0.0020 os         1 16Q      -0.328900
      4 C1          -0.0170     0.1930    -0.0090 ca         1 16Q       0.146100
      5 C2          -0.5110    -1.1110     0.0060 ca         1 16Q      -0.192500
      6 C6          -0.9120     1.2660    -0.0350 ca         1 16Q      -0.192500
      7 C5          -2.2760     1.0330    -0.0440 ca         1 16Q      -0.092000
      8 C4          -2.7760    -0.2650    -0.0290 ca         1 16Q      -0.168000
      9 C3          -1.8850    -1.3270    -0.0030 ca         1 16Q      -0.092000
     10 H1           3.7910     0.7020    -0.8720 hc         1 16Q       0.046700
     11 H2           3.7740     0.7380     0.8980 hc         1 16Q       0.046700
     12 H3           4.3880    -0.6780     0.0470 hc         1 16Q       0.046700
     13 H4           2.1380    -1.1820    -0.8490 h1         1 16Q       0.032700
     14 H5           2.1250    -1.1510     0.9170 h1         1 16Q       0.032700
     15 H6           0.1520    -1.9650     0.0250 ha         1 16Q       0.137500
     16 H7          -0.5270     2.2780    -0.0470 ha         1 16Q       0.137500
     17 H8          -2.9560     1.8750    -0.0650 ha         1 16Q       0.128500
     18 H9          -3.8430    -0.4430    -0.0360 ha         1 16Q       0.132000
     19 H10         -2.2540    -2.3440     0.0090 ha         1 16Q       0.128500
@<TRIPOS>BOND
     1     1     2 1   
     2     1    10 1   
     3     1    11 1   
     4     1    12 1   
     5     2     3 1   
     6     2    13 1   
     7     2    14 1   
     8     3     4 1   
     9     4     5 ar  
    10     4     6 ar  
    11     5     9 ar  
    12     5    15 1   
    13     6     7 ar  
    14     6    16 1   
    15     7     8 ar  
    16     7    17 1   
    17     8     9 ar  
    18     8    18 1   
    19     9    19 1   
@<TRIPOS>SUBSTRUCTURE
     1 16Q         1 TEMP              0 ****  ****    0 ROOT
