@<TRIPOS>MOLECULE
16R
   16    16     1     0     0
SMALL
abcg2


@<TRIPOS>ATOM
      1 C8          -2.6600     0.9560    -0.0200 c3         1 16R       0.021900
      2 S7          -1.7940    -0.6220    -0.1090 ss         1 16R      -0.169000
      3 C4          -0.0930    -0.1690    -0.0660 ca         1 16R      -0.089000
      4 C3           0.8330    -1.2150    -0.0210 ca         1 16R      -0.110500
      5 C5           0.3650     1.1460    -0.0810 ca         1 16R      -0.110500
      6 C6           1.7290     1.4070    -0.0510 ca         1 16R      -0.097500
      7 C1           2.6490     0.3700    -0.0070 ca         1 16R      -0.117000
      8 C2           2.1910    -0.9430     0.0070 ca         1 16R      -0.097500
      9 H1          -3.7210     0.7130    -0.0040 h1         1 16R       0.065033
     10 H2          -2.4120     1.4980     0.8900 h1         1 16R       0.065033
     11 H3          -2.4620     1.5800    -0.8890 h1         1 16R       0.065033
     12 H4           0.4920    -2.2430    -0.0040 ha         1 16R       0.117000
     13 H5          -0.3290     1.9740    -0.1180 ha         1 16R       0.117000
     14 H6           2.0700     2.4350    -0.0630 ha         1 16R       0.112000
     15 H7           3.7100     0.5790     0.0170 ha         1 16R       0.114000
     16 H8           2.8950    -1.7640     0.0440 ha         1 16R       0.112000
@<TRIPOS>BOND
     1     1     2 1   
     2     1     9 1   
     3     1    10 1   
     4     1    11 1   
     5     2     3 1   
     6     3     4 ar  
     7     3     5 ar  
     8     4     8 ar  
     9     4    12 1   
    10     5     6 ar  
    11     5    13 1   
    12     6     7 ar  
    13     6    14 1   
    14     7     8 ar  
    15     7    15 1   
    16     8    16 1   
@<TRIPOS>SUBSTRUCTURE
     1 16R         1 TEMP              0 ****  ****    0 ROOT
