@<TRIPOS>MOLECULE
16R
   16    16     1     0     0
SMALL
No Charge or Current Charge


@<TRIPOS>ATOM
      1 C8          -2.7440     0.9740    -0.0410 c3         1 16R       0.021900
      2 S7          -1.8250    -0.6290    -0.0260 ss         1 16R      -0.169000
      3 C4          -0.0810    -0.1960    -0.0260 ca         1 16R      -0.089000
      4 C3           0.8600    -1.2420    -0.0150 ca         1 16R      -0.110500
      5 C5           0.3730     1.1410    -0.0360 ca         1 16R      -0.110500
      6 C6           1.7520     1.4190    -0.0350 ca         1 16R      -0.097500
      7 C1           2.6840     0.3680    -0.0240 ca         1 16R      -0.117000
      8 C2           2.2370    -0.9640    -0.0140 ca         1 16R      -0.097500
      9 H1          -3.8230     0.7750    -0.0420 h1         1 16R       0.065033
     10 H2          -2.4890     1.5580     0.8510 h1         1 16R       0.065033
     11 H3          -2.4850     1.5430    -0.9420 h1         1 16R       0.065033
     12 H4           0.5210    -2.2760    -0.0070 ha         1 16R       0.117000
     13 H5          -0.3220     1.9740    -0.0450 ha         1 16R       0.117000
     14 H6           2.0980     2.4500    -0.0430 ha         1 16R       0.112000
     15 H7           3.7500     0.5850    -0.0240 ha         1 16R       0.114000
     16 H8           2.9570    -1.7790    -0.0050 ha         1 16R       0.112000
@<TRIPOS>BOND
     1     1     2 1   
     2     1     9 1   
     3     1    10 1   
     4     1    11 1   
     5     2     3 1   
     6     3     4 ar  
     7     3     5 ar  
     8     4     8 ar  
     9     4    12 1   
    10     5     6 ar  
    11     5    13 1   
    12     6     7 ar  
    13     6    14 1   
    14     7     8 ar  
    15     7    15 1   
    16     8    16 1   
@<TRIPOS>SUBSTRUCTURE
     1 16R         1 TEMP              0 ****  ****    0 ROOT
