@<TRIPOS>MOLECULE
16S
   29    31     1     0     0
SMALL
bcc


@<TRIPOS>ATOM
      1 CAM         -1.9510     0.8860    -0.0100 ca         1 16S      -0.154000
      2 CAL         -3.3250     1.0330    -0.0220 ca         1 16S       0.100100
      3 OAR         -3.9440     2.2290    -0.0480 oh         1 16S      -0.473100
      4 CAP         -4.1470    -0.1040    -0.0060 ca         1 16S       0.137100
      5 OAS         -5.4720     0.1010    -0.0200 oh         1 16S      -0.466100
      6 CAO         -3.5590    -1.3610     0.0200 ca         1 16S      -0.206000
      7 CAN         -2.1830    -1.5040     0.0310 ca         1 16S      -0.082000
      8 CAK         -1.3570    -0.3830     0.0160 ca         1 16S      -0.073800
      9 CAJ          0.1010    -0.5220     0.0240 cc         1 16S       0.220900
     10 OAG          0.7300     0.6590    -0.0270 os         1 16S      -0.223200
     11 CAF          2.0800     0.7330    -0.0320 ca         1 16S       0.154100
     12 CAA          2.6370     2.0070    -0.0870 ca         1 16S      -0.161000
     13 CAB          4.0120     2.1290    -0.0960 ca         1 16S      -0.075000
     14 CAC          4.8290     0.9960    -0.0510 ca         1 16S      -0.165000
     15 CAD          4.2620    -0.2590     0.0040 ca         1 16S      -0.042000
     16 CAE          2.8720    -0.4090     0.0150 ca         1 16S      -0.225600
     17 CAH          2.2290    -1.7290     0.0750 c          1 16S       0.596900
     18 OAQ          2.8740    -2.7710     0.1220 o          1 16S      -0.545100
     19 CAI          0.7890    -1.6880     0.0750 cd         1 16S      -0.344200
     20 H1          -1.3410     1.7800    -0.0210 ha         1 16S       0.148000
     21 H2          -3.2960     2.9410    -0.0660 ho         1 16S       0.424000
     22 H3          -5.9430    -0.7400    -0.0150 ho         1 16S       0.426000
     23 H4          -4.1880    -2.2440     0.0310 ha         1 16S       0.140000
     24 H5          -1.7750    -2.5050     0.0490 ha         1 16S       0.144000
     25 H6           1.9960     2.8780    -0.1230 ha         1 16S       0.149000
     26 H7           4.4560     3.1140    -0.1400 ha         1 16S       0.138000
     27 H8           5.9050     1.1060    -0.0600 ha         1 16S       0.140000
     28 H9           4.8860    -1.1420     0.0400 ha         1 16S       0.157000
     29 H10          0.2550    -2.6270     0.1200 ha         1 16S       0.162000
@<TRIPOS>BOND
     1     1     2 ar  
     2     1     8 ar  
     3     1    20 1   
     4     2     3 1   
     5     2     4 ar  
     6     3    21 1   
     7     4     5 1   
     8     4     6 ar  
     9     5    22 1   
    10     6     7 ar  
    11     6    23 1   
    12     7     8 ar  
    13     7    24 1   
    14     8     9 1   
    15     9    10 1   
    16     9    19 2   
    17    10    11 1   
    18    11    12 ar  
    19    11    16 ar  
    20    12    13 ar  
    21    12    25 1   
    22    13    14 ar  
    23    13    26 1   
    24    14    15 ar  
    25    14    27 1   
    26    15    16 ar  
    27    15    28 1   
    28    16    17 1   
    29    17    18 2   
    30    17    19 1   
    31    19    29 1   
@<TRIPOS>SUBSTRUCTURE
     1 16S         1 TEMP              0 ****  ****    0 ROOT
