@<TRIPOS>MOLECULE
16S
   29    31     1     0     0
SMALL
No Charge or Current Charge


@<TRIPOS>ATOM
      1 CAM         -2.1090     0.9060     0.3970 ca         1 16S      -0.136000
      2 CAL         -3.5120     0.9530     0.3060 ca         1 16S       0.100100
      3 OAR         -4.1700     2.1040     0.6610 oh         1 16S      -0.512100
      4 CAP         -4.2260    -0.1820    -0.1500 ca         1 16S       0.136100
      5 OAS         -5.5930    -0.1650    -0.2500 oh         1 16S      -0.505100
      6 CAO         -3.5270    -1.3460    -0.5100 ca         1 16S      -0.188000
      7 CAN         -2.1250    -1.3870    -0.4150 ca         1 16S      -0.064000
      8 CAK         -1.4020    -0.2650     0.0440 ca         1 16S      -0.073800
      9 CAJ          0.0630    -0.2970     0.1390 cc         1 16S       0.220900
     10 OAG          0.7540     0.8930    -0.0320 os         1 16S      -0.223200
     11 CAF          2.1360     0.8070    -0.1240 ca         1 16S       0.154100
     12 CAA          2.8180     1.9700    -0.5250 ca         1 16S      -0.143000
     13 CAB          4.2190     1.9870    -0.6160 ca         1 16S      -0.057000
     14 CAC          4.9530     0.8350    -0.2930 ca         1 16S      -0.147000
     15 CAD          4.2850    -0.3300     0.1190 ca         1 16S      -0.024000
     16 CAE          2.8760    -0.3430     0.2050 ca         1 16S      -0.225600
     17 CAH          2.1470    -1.5510     0.6350 c          1 16S       0.596900
     18 OAQ          2.7060    -2.5700     1.0160 o          1 16S      -0.545100
     19 CAI          0.7070    -1.4460     0.5450 cd         1 16S      -0.394200
     20 H1          -1.5620     1.7770     0.7500 ha         1 16S       0.130000
     21 H2          -3.5110     2.7720     0.9460 ho         1 16S       0.463000
     22 H3          -5.8920    -1.0380    -0.5810 ho         1 16S       0.465000
     23 H4          -4.0620    -2.2220    -0.8670 ha         1 16S       0.122000
     24 H5          -1.6020    -2.2930    -0.7150 ha         1 16S       0.126000
     25 H6           2.2520     2.8660    -0.7690 ha         1 16S       0.131000
     26 H7           4.7350     2.8920    -0.9310 ha         1 16S       0.120000
     27 H8           6.0390     0.8440    -0.3600 ha         1 16S       0.122000
     28 H9           4.8630    -1.2180     0.3690 ha         1 16S       0.139000
     29 H10          0.1730    -2.3500     0.8050 ha         1 16S       0.212000
@<TRIPOS>BOND
     1     1     2 ar  
     2     1     8 ar  
     3     1    20 1   
     4     2     3 1   
     5     2     4 ar  
     6     3    21 1   
     7     4     5 1   
     8     4     6 ar  
     9     5    22 1   
    10     6     7 ar  
    11     6    23 1   
    12     7     8 ar  
    13     7    24 1   
    14     8     9 1   
    15     9    10 1   
    16     9    19 2   
    17    10    11 1   
    18    11    12 ar  
    19    11    16 ar  
    20    12    13 ar  
    21    12    25 1   
    22    13    14 ar  
    23    13    26 1   
    24    14    15 ar  
    25    14    27 1   
    26    15    16 ar  
    27    15    28 1   
    28    16    17 1   
    29    17    18 2   
    30    17    19 1   
    31    19    29 1   
@<TRIPOS>SUBSTRUCTURE
     1 16S         1 TEMP              0 ****  ****    0 ROOT
