@<TRIPOS>MOLECULE
16T
   55    58     1     0     0
SMALL
bcc


@<TRIPOS>ATOM
      1 C1           7.8600     0.6990     0.6400 c3         1 16T      -0.021900
      2 C2           6.5770     0.3690    -0.0490 cc         1 16T      -0.257400
      3 C3           5.3830     0.8300     0.3630 cd         1 16T       0.038600
      4 N4           4.1860     0.5490    -0.2460 n          1 16T      -0.378000
      5 C5           4.1420    -0.2520    -1.3620 c          1 16T       0.826500
      6 O6           3.1180    -0.5370    -1.9500 o          1 16T      -0.642500
      7 N7           5.3630    -0.7200    -1.7760 ns         1 16T      -0.601500
      8 C8           6.6050    -0.4840    -1.2180 c          1 16T       0.728700
      9 O9           7.6080    -0.9760    -1.7040 o          1 16T      -0.598500
     10 C10          2.9620     1.1410     0.3080 c6         1 16T       0.126700
     11 C11          2.2770     2.1330    -0.6230 c6         1 16T      -0.091400
     12 C12          1.0890     2.7460     0.1090 c6         1 16T      -0.074400
     13 C13          0.1510     1.6790     0.6480 c6         1 16T       0.187800
     14 N14          0.9070     0.7670     1.5150 n3         1 16T      -0.714500
     15 C15          1.9860     0.0750     0.8090 c6         1 16T       0.171800
     16 S16          0.0210    -0.1500     2.5770 sy         1 16T       1.301200
     17 O17          0.9670    -0.9220     3.3650 o          1 16T      -0.601300
     18 O18         -0.9000     0.7540     3.2440 o          1 16T      -0.601300
     19 C19         -0.9230    -1.2730     1.5970 ca         1 16T      -0.346500
     20 C20         -0.3860    -2.5060     1.2410 ca         1 16T       0.006000
     21 C21         -1.1100    -3.3580     0.4300 ca         1 16T      -0.181000
     22 C22         -2.3660    -2.9860    -0.0450 ca         1 16T       0.203100
     23 C23         -2.8860    -1.7420     0.3260 ca         1 16T      -0.023900
     24 C24         -2.1800    -0.8890     1.1490 ca         1 16T      -0.010000
     25 O25         -4.1420    -1.4290    -0.1190 os         1 16T      -0.259200
     26 C26         -4.3080    -0.3510    -0.9450 ca         1 16T       0.125100
     27 C27         -3.2810     0.1910    -1.7090 ca         1 16T      -0.193000
     28 C28         -3.5610     1.2670    -2.5390 ca         1 16T      -0.091000
     29 C29         -4.8360     1.8060    -2.6190 ca         1 16T      -0.143000
     30 C30         -5.8380     1.2400    -1.8450 ca         1 16T       0.055400
     31 C31         -5.5940     0.1700    -1.0020 ca         1 16T      -0.143000
     32 CL1         -7.4410     1.8900    -1.9220 cl         1 16T      -0.098400
     33 O33         -3.0320    -3.8320    -0.8330 oh         1 16T      -0.476100
     34 H1           8.3580    -0.1990     1.0070 hc         1 16T       0.049033
     35 H2           8.5560     1.2010    -0.0340 hc         1 16T       0.049033
     36 H3           7.6860     1.3570     1.4900 hc         1 16T       0.049033
     37 H4           5.3110     1.4730     1.2300 h4         1 16T       0.158000
     38 H5           5.3370    -1.3140    -2.5970 hn         1 16T       0.344500
     39 H6           3.2920     1.6900     1.1910 h1         1 16T       0.071700
     40 H7           2.9820     2.9120    -0.9190 hc         1 16T       0.064200
     41 H8           1.9340     1.6320    -1.5280 hc         1 16T       0.064200
     42 H9           1.4370     3.3670     0.9380 hc         1 16T       0.057200
     43 H10          0.5270     3.3940    -0.5650 hc         1 16T       0.057200
     44 H11         -0.6460     2.1500     1.2200 h1         1 16T       0.059200
     45 H12         -0.3050     1.1260    -0.1850 h1         1 16T       0.059200
     46 H13          1.5910    -0.5130    -0.0250 h1         1 16T       0.075200
     47 H14          2.5100    -0.5900     1.4940 h1         1 16T       0.075200
     48 H15          0.5860    -2.8140     1.6000 ha         1 16T       0.159000
     49 H16         -0.7040    -4.3230     0.1530 ha         1 16T       0.160000
     50 H17         -2.6160     0.0590     1.4380 ha         1 16T       0.167000
     51 H18         -2.2780    -0.2130    -1.6760 ha         1 16T       0.147000
     52 H19         -2.7680     1.6900    -3.1400 ha         1 16T       0.139000
     53 H20         -5.0420     2.6450    -3.2690 ha         1 16T       0.153000
     54 H21         -6.3830    -0.2600    -0.3990 ha         1 16T       0.166000
     55 H22         -3.9040    -3.4850    -1.0590 ho         1 16T       0.453000
@<TRIPOS>BOND
     1     1     2 1   
     2     1    34 1   
     3     1    35 1   
     4     1    36 1   
     5     2     3 2   
     6     2     8 1   
     7     3     4 1   
     8     3    37 1   
     9     4     5 1   
    10     4    10 1   
    11     5     6 2   
    12     5     7 1   
    13     7     8 1   
    14     7    38 1   
    15     8     9 2   
    16    10    11 1   
    17    10    15 1   
    18    10    39 1   
    19    11    12 1   
    20    11    40 1   
    21    11    41 1   
    22    12    13 1   
    23    12    42 1   
    24    12    43 1   
    25    13    14 1   
    26    13    44 1   
    27    13    45 1   
    28    14    15 1   
    29    14    16 1   
    30    15    46 1   
    31    15    47 1   
    32    16    17 2   
    33    16    18 2   
    34    16    19 1   
    35    19    20 ar  
    36    19    24 ar  
    37    20    21 ar  
    38    20    48 1   
    39    21    22 ar  
    40    21    49 1   
    41    22    23 ar  
    42    22    33 1   
    43    23    24 ar  
    44    23    25 1   
    45    24    50 1   
    46    25    26 1   
    47    26    27 ar  
    48    26    31 ar  
    49    27    28 ar  
    50    27    51 1   
    51    28    29 ar  
    52    28    52 1   
    53    29    30 ar  
    54    29    53 1   
    55    30    31 ar  
    56    30    32 1   
    57    31    54 1   
    58    33    55 1   
@<TRIPOS>SUBSTRUCTURE
     1 16T         1 TEMP              0 ****  ****    0 ROOT
