@<TRIPOS>MOLECULE
16T
   55    58     1     0     0
SMALL
No Charge or Current Charge


@<TRIPOS>ATOM
      1 C1           7.1740     0.1630    -0.5860 c3         1 16T      -0.021900
      2 C2           5.6860     0.1230    -0.8470 cc         1 16T      -0.257400
      3 C3           4.7430     0.7180    -0.0360 cd         1 16T      -0.011400
      4 N4           3.3810     0.6380    -0.3400 n          1 16T      -0.311000
      5 C5           2.9460    -0.0510    -1.4960 c          1 16T       0.617000
      6 O6           1.7780    -0.1520    -1.8250 o          1 16T      -0.567000
      7 N7           3.9160    -0.6180    -2.2570 ns         1 16T      -0.467500
      8 C8           5.2580    -0.6100    -2.0590 c          1 16T       0.586200
      9 O9           6.0120    -1.1700    -2.8390 o          1 16T      -0.523000
     10 C10          2.4050     1.2970     0.5800 c6         1 16T       0.126700
     11 C11          1.7170     2.5330    -0.0480 c6         1 16T      -0.091400
     12 C12          0.7960     3.2050     0.9980 c6         1 16T      -0.074400
     13 C13         -0.1970     2.1920     1.6230 c6         1 16T       0.187800
     14 N14          0.5080     1.0220     2.2210 n3         1 16T      -0.714500
     15 C15          1.3750     0.3270     1.2240 c6         1 16T       0.171800
     16 S16         -0.4480    -0.0140     3.1920 sy         1 16T       1.159600
     17 O17          0.4300    -0.5200     4.2530 o          1 16T      -0.530500
     18 O18         -1.6760     0.7230     3.5100 o          1 16T      -0.530500
     19 C19         -0.8870    -1.3320     2.0500 ca         1 16T      -0.346500
     20 C20         -0.2600    -2.5920     2.1320 ca         1 16T       0.024000
     21 C21         -0.5930    -3.5960     1.2050 ca         1 16T      -0.163000
     22 C22         -1.5310    -3.3420     0.1930 ca         1 16T       0.203100
     23 C23         -2.1480    -2.0800     0.1000 ca         1 16T      -0.023900
     24 C24         -1.8420    -1.0820     1.0450 ca         1 16T       0.008000
     25 O25         -3.0500    -1.8330    -0.9160 os         1 16T      -0.259200
     26 C26         -3.1090    -0.6220    -1.5710 ca         1 16T       0.125100
     27 C27         -1.9350     0.0980    -1.8710 ca         1 16T      -0.175000
     28 C28         -2.0160     1.3350    -2.5350 ca         1 16T      -0.073000
     29 C29         -3.2710     1.8460    -2.9070 ca         1 16T      -0.125000
     30 C30         -4.4390     1.1200    -2.6200 ca         1 16T       0.147000
     31 C31         -4.3600    -0.1140    -1.9560 ca         1 16T      -0.125000
     32 Cl1         -6.0070     1.7610    -3.0940 cl         1 16T      -0.190000
     33 O33         -1.8340    -4.3180    -0.7090 oh         1 16T      -0.515100
     34 H1           7.5810    -0.8480    -0.4650 hc         1 16T       0.049033
     35 H2           7.7070     0.6470    -1.4140 hc         1 16T       0.049033
     36 H3           7.4040     0.7240     0.3290 hc         1 16T       0.049033
     37 H4           4.9840     1.2730     0.8670 h4         1 16T       0.208000
     38 H5           3.5950    -1.1070    -3.0770 hn         1 16T       0.344500
     39 H6           2.9790     1.6880     1.4320 h1         1 16T       0.071700
     40 H7           2.4720     3.2480    -0.4010 hc         1 16T       0.064200
     41 H8           1.1230     2.2390    -0.9240 hc         1 16T       0.064200
     42 H9           1.4060     3.6510     1.7960 hc         1 16T       0.057200
     43 H10          0.2400     4.0300     0.5330 hc         1 16T       0.057200
     44 H11         -0.7780     2.7320     2.3850 h1         1 16T       0.059200
     45 H12         -0.9060     1.8590     0.8500 h1         1 16T       0.059200
     46 H13          0.7600    -0.1220     0.4320 h1         1 16T       0.075200
     47 H14          1.9320    -0.4910     1.7040 h1         1 16T       0.075200
     48 H15          0.4810    -2.7990     2.9020 ha         1 16T       0.141000
     49 H16         -0.1140    -4.5690     1.2660 ha         1 16T       0.142000
     50 H17         -2.3330    -0.1120     0.9850 ha         1 16T       0.149000
     51 H18         -0.9620    -0.2990    -1.5940 ha         1 16T       0.129000
     52 H19         -1.1090     1.8910    -2.7620 ha         1 16T       0.121000
     53 H20         -3.3390     2.8020    -3.4220 ha         1 16T       0.135000
     54 H21         -5.2640    -0.6720    -1.7330 ha         1 16T       0.148000
     55 H22         -2.5000    -3.9380    -1.3230 ho         1 16T       0.492000
@<TRIPOS>BOND
     1     1     2 1   
     2     1    34 1   
     3     1    35 1   
     4     1    36 1   
     5     2     3 2   
     6     2     8 1   
     7     3     4 1   
     8     3    37 1   
     9     4     5 1   
    10     4    10 1   
    11     5     6 2   
    12     5     7 1   
    13     7     8 1   
    14     7    38 1   
    15     8     9 2   
    16    10    11 1   
    17    10    15 1   
    18    10    39 1   
    19    11    12 1   
    20    11    40 1   
    21    11    41 1   
    22    12    13 1   
    23    12    42 1   
    24    12    43 1   
    25    13    14 1   
    26    13    44 1   
    27    13    45 1   
    28    14    15 1   
    29    14    16 1   
    30    15    46 1   
    31    15    47 1   
    32    16    17 2   
    33    16    18 2   
    34    16    19 1   
    35    19    20 ar  
    36    19    24 ar  
    37    20    21 ar  
    38    20    48 1   
    39    21    22 ar  
    40    21    49 1   
    41    22    23 ar  
    42    22    33 1   
    43    23    24 ar  
    44    23    25 1   
    45    24    50 1   
    46    25    26 1   
    47    26    27 ar  
    48    26    31 ar  
    49    27    28 ar  
    50    27    51 1   
    51    28    29 ar  
    52    28    52 1   
    53    29    30 ar  
    54    29    53 1   
    55    30    31 ar  
    56    30    32 1   
    57    31    54 1   
    58    33    55 1   
@<TRIPOS>SUBSTRUCTURE
     1 16T         1 TEMP              0 ****  ****    0 ROOT
