@<TRIPOS>MOLECULE
16U
   48    49     1     0     0
SMALL
abcg2


@<TRIPOS>ATOM
      1 C15         -4.1970     0.2780     0.1450 c3         1 16U      -0.148400
      2 C10         -5.0460    -0.9840     0.1230 c3         1 16U      -0.063400
      3 C11         -6.3370    -0.8570     0.9340 c3         1 16U      -0.063700
      4 C12         -7.2950     0.1740     0.3430 c3         1 16U      -0.087600
      5 C18         -7.0240    -2.2140     1.0420 c3         1 16U      -0.087600
      6 C14         -2.8950     0.1470    -0.6120 c          1 16U       0.613100
      7 O32         -2.6460    -0.8050    -1.3420 o          1 16U      -0.607100
      8 N1          -2.0110     1.1510    -0.4620 n          1 16U      -0.406800
      9 C1          -0.7430     1.1170    -1.1580 c5         1 16U       0.032700
     10 C7           0.0710    -0.1110    -0.7780 c          1 16U       0.602100
     11 O22          0.0460    -0.5880     0.3440 o          1 16U      -0.580100
     12 C2          -0.0320     2.3980    -0.6900 c5         1 16U      -0.087400
     13 C3          -1.1770     3.3140    -0.2710 c5         1 16U      -0.093400
     14 C4          -2.1860     2.3530     0.3410 c5         1 16U       0.109000
     15 N23          0.8770    -0.5690    -1.7500 ns         1 16U      -0.506900
     16 C24          1.8100    -1.6410    -1.5220 c3         1 16U       0.154300
     17 C25          2.9560    -1.2710    -0.6100 ca         1 16U      -0.083300
     18 C26          3.5090    -2.2270     0.2340 ca         1 16U      -0.094000
     19 C27          4.5890    -1.9110     1.0470 ca         1 16U      -0.099000
     20 C28          5.1310    -0.6340     1.0360 ca         1 16U      -0.102000
     21 C29          4.5690     0.3120     0.1930 ca         1 16U       0.122000
     22 C30          3.4960     0.0110    -0.6280 ca         1 16U      -0.097000
     23 CL21         5.2250     1.9200     0.1650 cl         1 16U      -0.214000
     24 H15         -4.7480     1.1190    -0.2880 hc         1 16U       0.056200
     25 H15A        -3.9900     0.5680     1.1810 hc         1 16U       0.056200
     26 H10         -4.4620    -1.8170     0.5240 hc         1 16U       0.056200
     27 H10A        -5.2970    -1.2520    -0.9080 hc         1 16U       0.056200
     28 H11         -6.0690    -0.5340     1.9480 hc         1 16U       0.041700
     29 H12         -8.2080     0.2420     0.9360 hc         1 16U       0.032200
     30 H12A        -6.8620     1.1740     0.3030 hc         1 16U       0.032200
     31 H12B        -7.5800    -0.1050    -0.6740 hc         1 16U       0.032200
     32 H18         -6.3700    -2.9590     1.5000 hc         1 16U       0.032200
     33 H18A        -7.9310    -2.1530     1.6470 hc         1 16U       0.032200
     34 H18B        -7.3120    -2.5860     0.0550 hc         1 16U       0.032200
     35 H1          -0.9020     1.1420    -2.2410 h1         1 16U       0.063700
     36 H2           0.5890     2.8240    -1.4770 hc         1 16U       0.062700
     37 H2A          0.6130     2.1890     0.1660 hc         1 16U       0.062700
     38 H3          -1.6120     3.8030    -1.1450 hc         1 16U       0.055700
     39 H3A         -0.8660     4.0900     0.4260 hc         1 16U       0.055700
     40 H4          -3.2060     2.7280     0.2790 h1         1 16U       0.051200
     41 H4A         -1.9600     2.1570     1.3940 h1         1 16U       0.051200
     42 HN23         0.8380    -0.1500    -2.6640 hn         1 16U       0.317500
     43 H24          1.2940    -2.5140    -1.1170 h1         1 16U       0.060200
     44 H24A         2.2040    -1.9380    -2.4950 h1         1 16U       0.060200
     45 H26          3.0910    -3.2260     0.2620 ha         1 16U       0.119000
     46 H27          5.0100    -2.6610     1.7040 ha         1 16U       0.118000
     47 H28          5.9690    -0.3840     1.6720 ha         1 16U       0.129000
     48 H30          3.0800     0.7710    -1.2770 ha         1 16U       0.122000
@<TRIPOS>BOND
     1     1     2 1   
     2     1     6 1   
     3     1    24 1   
     4     1    25 1   
     5     2     3 1   
     6     2    26 1   
     7     2    27 1   
     8     3     4 1   
     9     3     5 1   
    10     3    28 1   
    11     4    29 1   
    12     4    30 1   
    13     4    31 1   
    14     5    32 1   
    15     5    33 1   
    16     5    34 1   
    17     6     7 2   
    18     6     8 1   
    19     8     9 1   
    20     8    14 1   
    21     9    10 1   
    22     9    12 1   
    23     9    35 1   
    24    10    11 2   
    25    10    15 1   
    26    12    13 1   
    27    12    36 1   
    28    12    37 1   
    29    13    14 1   
    30    13    38 1   
    31    13    39 1   
    32    14    40 1   
    33    14    41 1   
    34    15    16 1   
    35    15    42 1   
    36    16    17 1   
    37    16    43 1   
    38    16    44 1   
    39    17    18 ar  
    40    17    22 ar  
    41    18    19 ar  
    42    18    45 1   
    43    19    20 ar  
    44    19    46 1   
    45    20    21 ar  
    46    20    47 1   
    47    21    22 ar  
    48    21    23 1   
    49    22    48 1   
@<TRIPOS>SUBSTRUCTURE
     1 16U         1 TEMP              0 ****  ****    0 ROOT
