@<TRIPOS>MOLECULE
16U
   48    49     1     0     0
SMALL
No Charge or Current Charge


@<TRIPOS>ATOM
      1 C15         -4.4200     0.1870     0.1310 c3         1 16U      -0.148400
      2 C10         -5.3590    -1.0400    -0.0100 c3         1 16U      -0.063400
      3 C11         -6.6320    -0.9870     0.8780 c3         1 16U      -0.063700
      4 C12         -7.5520     0.2110     0.5400 c3         1 16U      -0.087600
      5 C18         -7.4160    -2.3170     0.8000 c3         1 16U      -0.087600
      6 C14         -3.0830     0.0930    -0.6320 c          1 16U       0.613100
      7 O32         -2.8710    -0.7990    -1.4450 o          1 16U      -0.607100
      8 N1          -2.0980     1.0710    -0.3710 n          1 16U      -0.406800
      9 C1          -0.7300     1.0150    -0.9630 c5         1 16U       0.032700
     10 C7           0.0760    -0.2960    -0.6780 c          1 16U       0.602100
     11 O22         -0.1210    -1.1160     0.2100 o          1 16U      -0.580100
     12 C2          -0.0280     2.1900    -0.2160 c5         1 16U      -0.087400
     13 C3          -1.1820     3.2080    -0.0590 c5         1 16U      -0.093400
     14 C4          -2.3450     2.3010     0.4130 c5         1 16U       0.109000
     15 N23          1.0940    -0.4110    -1.6020 ns         1 16U      -0.506900
     16 C24          2.0860    -1.4850    -1.6060 c3         1 16U       0.154300
     17 C25          3.2950    -1.1210    -0.7570 ca         1 16U      -0.083300
     18 C26          3.3580    -1.5110     0.5960 ca         1 16U      -0.094000
     19 C27          4.4710    -1.1670     1.3830 ca         1 16U      -0.099000
     20 C28          5.5270    -0.4280     0.8220 ca         1 16U      -0.102000
     21 C29          5.4670    -0.0340    -0.5250 ca         1 16U       0.122000
     22 C30          4.3550    -0.3780    -1.3130 ca         1 16U      -0.097000
     23 Cl21         6.7860     0.8930    -1.2270 cl         1 16U      -0.214000
     24 H15         -4.9120     1.1090    -0.1960 hc         1 16U       0.056200
     25 H15A        -4.2020     0.4100     1.1820 hc         1 16U       0.056200
     26 H10         -4.7890    -1.9410     0.2520 hc         1 16U       0.056200
     27 H10A        -5.6530    -1.1520    -1.0620 hc         1 16U       0.056200
     28 H11         -6.3060    -0.8670     1.9190 hc         1 16U       0.041700
     29 H12         -8.4580     0.1880     1.1570 hc         1 16U       0.032200
     30 H12A        -7.0490     1.1660     0.7330 hc         1 16U       0.032200
     31 H12B        -7.8560     0.1860    -0.5140 hc         1 16U       0.032200
     32 H18         -6.7810    -3.1600     1.0970 hc         1 16U       0.032200
     33 H18A        -8.2830    -2.2960     1.4710 hc         1 16U       0.032200
     34 H18B        -7.7750    -2.5000    -0.2200 hc         1 16U       0.032200
     35 H1          -0.7770     1.1910    -2.0460 h1         1 16U       0.063700
     36 H2           0.8230     2.5950    -0.7750 hc         1 16U       0.062700
     37 H2A          0.3480     1.8760     0.7670 hc         1 16U       0.062700
     38 H3          -1.4190     3.6870    -1.0160 hc         1 16U       0.055700
     39 H3A         -0.9540     4.0040     0.6590 hc         1 16U       0.055700
     40 H4          -3.3210     2.7560     0.1970 h1         1 16U       0.051200
     41 H4A         -2.2830     2.0920     1.4890 h1         1 16U       0.051200
     42 HN23         1.1750     0.3220    -2.2960 hn         1 16U       0.317500
     43 H24          1.6290    -2.4120    -1.2340 h1         1 16U       0.060200
     44 H24A         2.4040    -1.6660    -2.6410 h1         1 16U       0.060200
     45 H26          2.5430    -2.0800     1.0380 ha         1 16U       0.119000
     46 H27          4.5140    -1.4710     2.4270 ha         1 16U       0.118000
     47 H28          6.3880    -0.1590     1.4280 ha         1 16U       0.129000
     48 H30          4.3180    -0.0660    -2.3530 ha         1 16U       0.122000
@<TRIPOS>BOND
     1     1     2 1   
     2     1     6 1   
     3     1    24 1   
     4     1    25 1   
     5     2     3 1   
     6     2    26 1   
     7     2    27 1   
     8     3     4 1   
     9     3     5 1   
    10     3    28 1   
    11     4    29 1   
    12     4    30 1   
    13     4    31 1   
    14     5    32 1   
    15     5    33 1   
    16     5    34 1   
    17     6     7 2   
    18     6     8 1   
    19     8     9 1   
    20     8    14 1   
    21     9    10 1   
    22     9    12 1   
    23     9    35 1   
    24    10    11 2   
    25    10    15 1   
    26    12    13 1   
    27    12    36 1   
    28    12    37 1   
    29    13    14 1   
    30    13    38 1   
    31    13    39 1   
    32    14    40 1   
    33    14    41 1   
    34    15    16 1   
    35    15    42 1   
    36    16    17 1   
    37    16    43 1   
    38    16    44 1   
    39    17    18 ar  
    40    17    22 ar  
    41    18    19 ar  
    42    18    45 1   
    43    19    20 ar  
    44    19    46 1   
    45    20    21 ar  
    46    20    47 1   
    47    21    22 ar  
    48    21    23 1   
    49    22    48 1   
@<TRIPOS>SUBSTRUCTURE
     1 16U         1 TEMP              0 ****  ****    0 ROOT
