@<TRIPOS>MOLECULE
16V
   37    38     1     0     0
SMALL
No Charge or Current Charge


@<TRIPOS>ATOM
      1 OAC          4.2330    -2.8800     0.0600 o          1 16V      -0.718500
      2 CAO          4.8990    -1.8530     0.0550 c          1 16V       0.713600
      3 OAD          6.1220    -1.8580     0.0670 o          1 16V      -0.718500
      4 CAS          4.1740    -0.5120     0.0310 ca         1 16V      -0.116600
      5 CAH          2.7570    -0.4500     0.0170 ca         1 16V      -0.145000
      6 CAG          4.9050     0.7000     0.0230 ca         1 16V      -0.097000
      7 CAF          4.2410     1.9380     0.0020 ca         1 16V      -0.154000
      8 CAR          2.8400     1.9850    -0.0120 ca         1 16V       0.102000
      9 FAE          2.2220     3.1890    -0.0330 f          1 16V      -0.200000
     10 CAT          2.0840     0.7940    -0.0040 ca         1 16V       0.063100
     11 OAN          0.7030     0.8850    -0.0190 os         1 16V      -0.353100
     12 CAJ         -0.1480    -0.2750    -0.0120 c3         1 16V       0.165600
     13 CAI         -1.6080     0.2160    -0.0320 c3         1 16V      -0.079400
     14 CAK         -2.6300    -0.9390    -0.0280 c3         1 16V       0.005900
     15 CAU         -4.0580    -0.4490    -0.0540 cc         1 16V      -0.186300
     16 CAP         -4.8600    -0.2210    -1.1330 cd         1 16V      -0.137300
     17 CAA         -4.5730    -0.3800    -2.6040 c3         1 16V      -0.029800
     18 NAL         -6.0780     0.2190    -0.6030 na         1 16V      -0.011200
     19 NAM         -6.0610     0.2720     0.7890 nd         1 16V      -0.534800
     20 CAQ         -4.8410    -0.1320     1.0790 cc         1 16V       0.264300
     21 CAB         -4.3380    -0.2470     2.4930 c3         1 16V      -0.120400
     22 H2           2.1940    -1.3780     0.0230 ha         1 16V       0.136000
     23 H3           5.9930     0.6860     0.0340 ha         1 16V       0.132000
     24 H4           4.8140     2.8620    -0.0040 ha         1 16V       0.105000
     25 H5           0.0400    -0.8990    -0.8960 h1         1 16V       0.035700
     26 H6           0.0230    -0.8770     0.8900 h1         1 16V       0.035700
     27 H7          -1.7820     0.8590     0.8390 hc         1 16V       0.050700
     28 H8          -1.7670     0.8320    -0.9250 hc         1 16V       0.050700
     29 H9          -2.4480    -1.5800    -0.8990 hc         1 16V       0.045700
     30 H10         -2.4620    -1.5700     0.8530 hc         1 16V       0.045700
     31 H11         -4.4840    -1.4390    -2.8730 hc         1 16V       0.049700
     32 H12         -5.3690     0.0570    -3.2190 hc         1 16V       0.049700
     33 H13         -3.6330     0.1150    -2.8760 hc         1 16V       0.049700
     34 H14         -6.9070     0.4800    -1.1360 hn         1 16V       0.362000
     35 H15         -4.1000    -1.2890     2.7370 hc         1 16V       0.046033
     36 H16         -3.4330     0.3540     2.6360 hc         1 16V       0.046033
     37 H17         -5.0880     0.1030     3.2120 hc         1 16V       0.046033
@<TRIPOS>BOND
     1     1     2 1   
     2     2     3 1   
     3     2     4 1   
     4     4     5 ar  
     5     4     6 ar  
     6     5    10 ar  
     7     5    22 1   
     8     6     7 ar  
     9     6    23 1   
    10     7     8 ar  
    11     7    24 1   
    12     8     9 1   
    13     8    10 ar  
    14    10    11 1   
    15    11    12 1   
    16    12    13 1   
    17    12    25 1   
    18    12    26 1   
    19    13    14 1   
    20    13    27 1   
    21    13    28 1   
    22    14    15 1   
    23    14    29 1   
    24    14    30 1   
    25    15    16 2   
    26    15    20 1   
    27    16    17 1   
    28    16    18 1   
    29    17    31 1   
    30    17    32 1   
    31    17    33 1   
    32    18    19 1   
    33    18    34 1   
    34    19    20 2   
    35    20    21 1   
    36    21    35 1   
    37    21    36 1   
    38    21    37 1   
@<TRIPOS>SUBSTRUCTURE
     1 16V         1 TEMP              0 ****  ****    0 ROOT
