@<TRIPOS>MOLECULE
16V
   37    38     1     0     0
SMALL
bcc


@<TRIPOS>ATOM
      1 OAC          4.0390    -2.8680     0.0510 o          1 16V      -0.823800
      2 CAO          4.7800    -1.8670     0.0050 c          1 16V       0.924200
      3 OAD          6.0240    -1.8600    -0.0250 o          1 16V      -0.823800
      4 CAS          4.0900    -0.5070    -0.0110 ca         1 16V      -0.116600
      5 CAH          2.6970    -0.4340     0.0120 ca         1 16V      -0.163000
      6 CAG          4.8320     0.6650    -0.0490 ca         1 16V      -0.115000
      7 CAF          4.1940     1.9010    -0.0620 ca         1 16V      -0.172000
      8 CAR          2.8200     1.9480    -0.0390 ca         1 16V       0.066900
      9 FAE          2.1910     3.1350    -0.0530 f          1 16V      -0.164900
     10 CAT          2.0420     0.7900    -0.0020 ca         1 16V       0.063100
     11 OAN          0.7080     0.9680     0.0150 os         1 16V      -0.329900
     12 CAJ         -0.1270    -0.1790     0.0290 c3         1 16V       0.142400
     13 CAI         -1.5680     0.2860     0.0160 c3         1 16V      -0.079400
     14 CAK         -2.5330    -0.9000     0.0050 c3         1 16V       0.005900
     15 CAU         -3.9660    -0.4790    -0.0190 cc         1 16V      -0.251600
     16 CAP         -4.7550    -0.2430    -1.1260 cd         1 16V      -0.086600
     17 CAA         -4.4650    -0.3780    -2.5790 c3         1 16V      -0.029800
     18 NAL         -5.9530     0.1430    -0.6480 na         1 16V      -0.011600
     19 NAM         -6.0050     0.1790     0.6820 nd         1 16V      -0.534800
     20 CAQ         -4.8020    -0.1940     1.0830 cc         1 16V       0.329600
     21 CAB         -4.4540    -0.2800     2.5290 c3         1 16V      -0.120400
     22 H2           2.1320    -1.3560     0.0420 ha         1 16V       0.154000
     23 H3           5.9110     0.6210    -0.0680 ha         1 16V       0.150000
     24 H4           4.7620     2.8230    -0.0920 ha         1 16V       0.123000
     25 H5           0.0750    -0.8090    -0.8460 h1         1 16V       0.035700
     26 H6           0.0710    -0.7860     0.9200 h1         1 16V       0.035700
     27 H7          -1.7600     0.9120     0.8920 hc         1 16V       0.050700
     28 H8          -1.7440     0.9080    -0.8650 hc         1 16V       0.050700
     29 H9          -2.3180    -1.5330    -0.8610 hc         1 16V       0.045700
     30 H10         -2.3490    -1.5280     0.8820 hc         1 16V       0.045700
     31 H11         -4.6940    -1.3810    -2.9430 hc         1 16V       0.049700
     32 H12         -5.0450     0.3290    -3.1720 hc         1 16V       0.049700
     33 H13         -3.4110    -0.1890    -2.7790 hc         1 16V       0.049700
     34 H14         -6.7680     0.3890    -1.1860 hn         1 16V       0.311700
     35 H15         -4.1260    -1.2840     2.8030 hc         1 16V       0.046033
     36 H16         -3.6410     0.4020     2.7860 hc         1 16V       0.046033
     37 H17         -5.3110    -0.0260     3.1520 hc         1 16V       0.046033
@<TRIPOS>BOND
     1     1     2 1   
     2     2     3 1   
     3     2     4 1   
     4     4     5 ar  
     5     4     6 ar  
     6     5    10 ar  
     7     5    22 1   
     8     6     7 ar  
     9     6    23 1   
    10     7     8 ar  
    11     7    24 1   
    12     8     9 1   
    13     8    10 ar  
    14    10    11 1   
    15    11    12 1   
    16    12    13 1   
    17    12    25 1   
    18    12    26 1   
    19    13    14 1   
    20    13    27 1   
    21    13    28 1   
    22    14    15 1   
    23    14    29 1   
    24    14    30 1   
    25    15    16 2   
    26    15    20 1   
    27    16    17 1   
    28    16    18 1   
    29    17    31 1   
    30    17    32 1   
    31    17    33 1   
    32    18    19 1   
    33    18    34 1   
    34    19    20 2   
    35    20    21 1   
    36    21    35 1   
    37    21    36 1   
    38    21    37 1   
@<TRIPOS>SUBSTRUCTURE
     1 16V         1 TEMP              0 ****  ****    0 ROOT
