@<TRIPOS>MOLECULE
16W
   43    46     1     0     0
SMALL
abcg2


@<TRIPOS>ATOM
      1 C1          -3.9580    -0.0600     0.4380 ca         1 16W      -0.144000
      2 C2          -3.0210     0.1980    -0.5630 ca         1 16W       0.144100
      3 C3          -3.4240     0.7560    -1.7720 ca         1 16W      -0.194000
      4 C7           2.5290    -3.3470     1.0830 ca         1 16W       0.198900
      5 C8           2.3120    -1.3010     0.3010 ca         1 16W       0.159500
      6 C9           0.9750    -1.5110    -0.0470 ca         1 16W      -0.372900
      7 C10          0.4570    -2.7910     0.2590 ca         1 16W       0.457900
      8 C11          0.5650    -0.2830    -0.6290 cc         1 16W       0.376900
      9 C12         -0.7370     0.0980    -1.2350 c3         1 16W       0.152300
     10 C13          5.7650     1.8570    -0.9550 c6         1 16W       0.154600
     11 C14          5.0320     2.6160     1.1310 c6         1 16W       0.154600
     12 C15          3.7030     1.8850     1.0180 c6         1 16W      -0.126900
     13 C16          3.8680     0.6640     0.1190 c6         1 16W       0.110300
     14 N2           3.1270    -2.1920     0.8720 nb         1 16W      -0.236000
     15 N4           1.2700    -3.6910     0.8170 nb         1 16W      -0.310000
     16 N5           2.6120    -0.0390    -0.0600 na         1 16W      -0.014100
     17 N1           1.5570     0.5710    -0.6160 nd         1 16W      -0.515100
     18 O2          -1.7460    -0.1320    -0.2620 os         1 16W      -0.355100
     19 O1           5.5400     2.9810    -0.1340 os         1 16W      -0.446000
     20 C17          4.4830     1.0770    -1.2130 c6         1 16W      -0.126900
     21 C4          -4.7660     1.0560    -1.9660 ca         1 16W      -0.063000
     22 C5          -5.7130     0.8110    -0.9860 ca         1 16W      -0.138000
     23 C6          -5.2850     0.2510     0.2100 ca         1 16W       0.155000
     24 CL1         -6.4440    -0.0720     1.4580 cl         1 16W      -0.197000
     25 H1          -3.6400    -0.4950     1.3760 ha         1 16W       0.142000
     26 H2          -2.7190     0.9610    -2.5660 ha         1 16W       0.123000
     27 H3           3.1360    -4.1240     1.5360 h5         1 16W       0.047100
     28 H4          -0.6990     1.1510    -1.5310 h1         1 16W       0.058200
     29 H5          -0.9380    -0.4980    -2.1320 h1         1 16W       0.058200
     30 H6           6.1840     2.2210    -1.8940 h1         1 16W       0.047950
     31 H7           6.5110     1.1910    -0.4960 h1         1 16W       0.047950
     32 H8           4.9130     3.5340     1.7080 h1         1 16W       0.047950
     33 H9           5.7560     1.9820     1.6640 h1         1 16W       0.047950
     34 H10          3.3670     1.5850     2.0140 hc         1 16W       0.066950
     35 H11          2.9480     2.5520     0.5970 hc         1 16W       0.066950
     36 H12          4.5340    -0.0510     0.6100 h1         1 16W       0.085700
     37 H13         -1.4960    -2.4670    -0.2400 hn         1 16W       0.502500
     38 H14         -1.1290    -4.0420     0.3380 hn         1 16W       0.502500
     39 H15          3.7780     1.6960    -1.7730 hc         1 16W       0.066950
     40 H16          4.7110     0.1980    -1.8210 hc         1 16W       0.066950
     41 H17         -5.0780     1.4910    -2.9060 ha         1 16W       0.119000
     42 H18         -6.7550     1.0480    -1.1470 ha         1 16W       0.134000
     43 N3          -0.8010    -3.1520     0.0010 nv         1 16W      -1.056900
@<TRIPOS>BOND
     1     1     2 ar  
     2     1    23 ar  
     3     1    25 1   
     4     2     3 ar  
     5     2    18 1   
     6     3    21 ar  
     7     3    26 1   
     8     4    14 ar  
     9     4    15 ar  
    10     4    27 1   
    11     5     6 ar  
    12     5    14 ar  
    13     5    16 1   
    14     6     7 ar  
    15     6     8 1   
    16     7    15 ar  
    17     7    43 1   
    18     8     9 1   
    19     8    17 2   
    20     9    18 1   
    21     9    28 1   
    22     9    29 1   
    23    10    19 1   
    24    10    20 1   
    25    10    30 1   
    26    10    31 1   
    27    11    12 1   
    28    11    19 1   
    29    11    32 1   
    30    11    33 1   
    31    12    13 1   
    32    12    34 1   
    33    12    35 1   
    34    13    16 1   
    35    13    20 1   
    36    13    36 1   
    37    16    17 1   
    38    20    39 1   
    39    20    40 1   
    40    21    22 ar  
    41    21    41 1   
    42    22    23 ar  
    43    22    42 1   
    44    23    24 1   
    45    37    43 1   
    46    38    43 1   
@<TRIPOS>SUBSTRUCTURE
     1 16W         1 TEMP              0 ****  ****    0 ROOT
