@<TRIPOS>MOLECULE
16W
   43    46     1     0     0
SMALL
No Charge or Current Charge


@<TRIPOS>ATOM
      1 C1          -4.0590    -0.0410     0.5070 ca         1 16W      -0.144000
      2 C2          -3.1430     0.1540    -0.5380 ca         1 16W       0.144100
      3 C3          -3.6110     0.5390    -1.8140 ca         1 16W      -0.194000
      4 C7           2.3760    -3.3710     1.0260 ca         1 16W       0.198900
      5 C8           2.3340    -1.2160     0.2740 ca         1 16W       0.159500
      6 C9           1.0280    -1.3840    -0.0840 ca         1 16W      -0.372900
      7 C10          0.4070    -2.6060     0.1450 ca         1 16W       0.457900
      8 C11          0.5830    -0.1380    -0.6670 cc         1 16W       0.376900
      9 C12         -0.7790     0.1460    -1.2670 c3         1 16W       0.152300
     10 C13          5.9930     1.7950    -0.9370 c6         1 16W       0.154600
     11 C14          5.2780     2.5770     1.2430 c6         1 16W       0.154600
     12 C15          3.8860     1.9230     1.0900 c6         1 16W      -0.126900
     13 C16          3.9690     0.6990     0.1400 c6         1 16W       0.110300
     14 N2           3.0470    -2.2090     0.8400 nb         1 16W      -0.236000
     15 N4           1.0810    -3.6190     0.7060 nb         1 16W      -0.310000
     16 N5           2.6320     0.0880    -0.0800 na         1 16W      -0.014100
     17 N1           1.5680     0.7720    -0.6670 nd         1 16W      -0.515100
     18 O2          -1.8060    -0.0470    -0.2680 os         1 16W      -0.355100
     19 O1           5.8010     2.9240    -0.0570 os         1 16W      -0.446000
     20 C17          4.6380     1.1000    -1.2020 c6         1 16W      -0.126900
     21 C4          -4.9880     0.7270    -2.0320 ca         1 16W      -0.063000
     22 C5          -5.8980     0.5300    -0.9790 ca         1 16W      -0.138000
     23 C6          -5.4320     0.1460     0.2880 ca         1 16W       0.155000
     24 Cl1         -6.5710    -0.1000     1.6040 cl         1 16W      -0.197000
     25 H1          -3.7030    -0.3370     1.4900 ha         1 16W       0.142000
     26 H2          -2.9280     0.6970    -2.6440 ha         1 16W       0.123000
     27 H3           2.9320    -4.1890     1.4820 h5         1 16W       0.047100
     28 H4          -0.7960     1.1780    -1.6390 h1         1 16W       0.058200
     29 H5          -0.9330    -0.5280    -2.1190 h1         1 16W       0.058200
     30 H6           6.4270     2.1470    -1.8830 h1         1 16W       0.047950
     31 H7           6.7030     1.0910    -0.4760 h1         1 16W       0.047950
     32 H8           5.2010     3.4880     1.8530 h1         1 16W       0.047950
     33 H9           5.9740     1.8880     1.7440 h1         1 16W       0.047950
     34 H10          3.5070     1.6140     2.0740 hc         1 16W       0.066950
     35 H11          3.1780     2.6660     0.6970 hc         1 16W       0.066950
     36 H12          4.6120    -0.0520     0.6210 h1         1 16W       0.085700
     37 H13         -1.4960    -2.0330    -0.2060 hn         1 16W       0.502500
     38 H14         -1.3050    -3.6840     0.2440 hn         1 16W       0.502500
     39 H15          3.9870     1.7810    -1.7660 hc         1 16W       0.066950
     40 H16          4.7890     0.2120    -1.8300 hc         1 16W       0.066950
     41 H17         -5.3490     1.0240    -3.0140 ha         1 16W       0.119000
     42 H18         -6.9630     0.6740    -1.1450 ha         1 16W       0.134000
     43 N3          -0.8860    -2.8460    -0.1510 nv         1 16W      -1.056900
@<TRIPOS>BOND
     1     1     2 ar  
     2     1    23 ar  
     3     1    25 1   
     4     2     3 ar  
     5     2    18 1   
     6     3    21 ar  
     7     3    26 1   
     8     4    14 ar  
     9     4    15 ar  
    10     4    27 1   
    11     5     6 ar  
    12     5    14 ar  
    13     5    16 1   
    14     6     7 ar  
    15     6     8 1   
    16     7    15 ar  
    17     7    43 1   
    18     8     9 1   
    19     8    17 2   
    20     9    18 1   
    21     9    28 1   
    22     9    29 1   
    23    10    19 1   
    24    10    20 1   
    25    10    30 1   
    26    10    31 1   
    27    11    12 1   
    28    11    19 1   
    29    11    32 1   
    30    11    33 1   
    31    12    13 1   
    32    12    34 1   
    33    12    35 1   
    34    13    16 1   
    35    13    20 1   
    36    13    36 1   
    37    16    17 1   
    38    20    39 1   
    39    20    40 1   
    40    21    22 ar  
    41    21    41 1   
    42    22    23 ar  
    43    22    42 1   
    44    23    24 1   
    45    37    43 1   
    46    38    43 1   
@<TRIPOS>SUBSTRUCTURE
     1 16W         1 TEMP              0 ****  ****    0 ROOT
