@<TRIPOS>MOLECULE
16X
   35    38     1     0     0
SMALL
abcg2


@<TRIPOS>ATOM
      1 N7A          7.0840    -0.0610    -0.1500 nv         1 16X      -1.053900
      2 C3A          5.7610     0.1360    -0.1000 cc         1 16X       0.727300
      3 N2A          5.1990     1.3150    -0.1120 nd         1 16X      -0.754000
      4 C1A          3.8440     1.2310    -0.0930 cd         1 16X       0.422300
      5 C6A          3.0670     2.5050    -0.0980 c3         1 16X      -0.124400
      6 S4A          4.6510    -1.1920    -0.0660 ss         1 16X      -0.093400
      7 C5A          3.3290    -0.0450    -0.0650 cc         1 16X      -0.358500
      8 C4           1.9600    -0.4990    -0.0310 ca         1 16X       0.285500
      9 N3           1.0010     0.4210    -0.0480 nb         1 16X      -0.261000
     10 C5           1.6270    -1.8640     0.0210 ca         1 16X      -0.276000
     11 C6           0.2860    -2.1700     0.0520 ca         1 16X       0.151900
     12 N1          -0.6770    -1.2520     0.0370 nb         1 16X      -0.236000
     13 C2          -0.2640     0.0070    -0.0110 ca         1 16X       0.392900
     14 N7          -1.1730     1.0260    -0.0260 nu         1 16X      -0.931900
     15 C1B         -2.5570     1.0260     0.0170 ca         1 16X       0.322000
     16 C6B         -3.1910     2.2730     0.0190 ca         1 16X      -0.152000
     17 C2B         -3.3550    -0.1210     0.0570 ca         1 16X      -0.089000
     18 C3B         -4.7330     0.0110     0.0980 ca         1 16X       0.108000
     19 N7B         -5.4160    -1.2510     0.1380 nm         1 16X      -0.161400
     20 O8B         -6.5940    -1.1770     0.8880 op         1 16X      -0.055800
     21 O9B         -6.6420    -1.1970    -0.5310 op         1 16X      -0.055800
     22 C4B         -5.3700     1.2440     0.1000 ca         1 16X      -0.105000
     23 C5B         -4.5710     2.3740     0.0600 ca         1 16X      -0.083000
     24 H7A1         7.6810     0.7350     0.0080 hn         1 16X       0.495000
     25 H7A2         7.4790    -0.9600     0.0680 hn         1 16X       0.495000
     26 H6A1         2.4210     2.5750    -0.9720 hc         1 16X       0.058367
     27 H6A2         2.4190     2.5820     0.7730 hc         1 16X       0.058367
     28 H6A3         3.7540     3.3490    -0.1020 hc         1 16X       0.058367
     29 H5           2.3670    -2.6500     0.0380 ha         1 16X       0.137000
     30 H6          -0.0370    -3.2040     0.0930 h4         1 16X       0.025100
     31 H7          -0.7420     1.9380    -0.0650 hn         1 16X       0.510000
     32 H6B         -2.5920     3.1760    -0.0120 ha         1 16X       0.116000
     33 H2B         -2.9130    -1.1040     0.0570 ha         1 16X       0.170000
     34 H5B         -5.0280     3.3550     0.0600 ha         1 16X       0.120000
     35 H4B         -6.4470     1.3360     0.1340 ha         1 16X       0.138000
@<TRIPOS>BOND
     1     1     2 1   
     2     1    24 1   
     3     1    25 1   
     4     2     3 2   
     5     2     6 1   
     6     3     4 1   
     7     4     5 1   
     8     4     7 2   
     9     5    26 1   
    10     5    27 1   
    11     5    28 1   
    12     6     7 1   
    13     7     8 1   
    14     8     9 ar  
    15     8    10 ar  
    16     9    13 ar  
    17    10    11 ar  
    18    10    29 1   
    19    11    12 ar  
    20    11    30 1   
    21    12    13 ar  
    22    13    14 1   
    23    14    15 1   
    24    14    31 1   
    25    15    16 ar  
    26    15    17 ar  
    27    16    23 ar  
    28    16    32 1   
    29    17    18 ar  
    30    17    33 1   
    31    18    19 1   
    32    18    22 ar  
    33    19    20 1   
    34    19    21 1   
    35    20    21 1   
    36    22    23 ar  
    37    22    35 1   
    38    23    34 1   
@<TRIPOS>SUBSTRUCTURE
     1 16X         1 TEMP              0 ****  ****    0 ROOT
