@<TRIPOS>MOLECULE
16X
   35    38     1     0     0
SMALL
No Charge or Current Charge


@<TRIPOS>ATOM
      1 N7A          7.1280     0.0600    -0.2170 nv         1 16X      -1.053900
      2 C3A          5.7960     0.1130    -0.1950 cc         1 16X       0.727300
      3 N2A          5.2440     1.2590    -0.4660 nd         1 16X      -0.754000
      4 C1A          3.8620     1.1370    -0.3830 cd         1 16X       0.422300
      5 C6A          3.0560     2.3760    -0.6830 c3         1 16X      -0.124400
      6 S4A          4.7710    -1.2300     0.1970 ss         1 16X      -0.093400
      7 C5A          3.4250    -0.1400    -0.0360 cc         1 16X      -0.358500
      8 C4           2.0140    -0.5290     0.1390 ca         1 16X       0.285500
      9 N3           1.0360     0.3970     0.0800 nb         1 16X      -0.261000
     10 C5           1.6800    -1.8780     0.3730 ca         1 16X      -0.276000
     11 C6           0.3270    -2.2110     0.5410 ca         1 16X       0.151900
     12 N1          -0.6360    -1.2760     0.4790 nb         1 16X      -0.236000
     13 C2          -0.2300    -0.0180     0.2400 ca         1 16X       0.392900
     14 N7          -1.1800     0.9940     0.1970 nu         1 16X      -0.931900
     15 C1B         -2.5800     1.0320     0.2030 ca         1 16X       0.322000
     16 C6B         -3.2100     2.1980     0.6680 ca         1 16X      -0.152000
     17 C2B         -3.3710    -0.0320    -0.2720 ca         1 16X      -0.089000
     18 C3B         -4.7750     0.0470    -0.2620 ca         1 16X       0.108000
     19 N7B         -5.5040    -1.0410    -0.7440 nm         1 16X      -0.161400
     20 O8B         -6.7610    -1.2690    -0.0450 op         1 16X      -0.055800
     21 O9B         -6.7510    -0.6880    -1.4080 op         1 16X      -0.055800
     22 C4B         -5.3930     1.2210     0.2260 ca         1 16X      -0.105000
     23 C5B         -4.6110     2.2930     0.6860 ca         1 16X      -0.083000
     24 H7A1         7.5750     0.9670    -0.1880 hn         1 16X       0.495000
     25 H7A2         7.5620    -0.6700     0.3350 hn         1 16X       0.495000
     26 H6A1         2.3460     2.1970    -1.4980 hc         1 16X       0.058367
     27 H6A2         2.4980     2.7060     0.2010 hc         1 16X       0.058367
     28 H6A3         3.6990     3.2090    -0.9910 hc         1 16X       0.058367
     29 H5           2.4350    -2.6550     0.4260 ha         1 16X       0.137000
     30 H6           0.0110    -3.2360     0.7280 h4         1 16X       0.025100
     31 H7          -0.7500     1.9180     0.2450 hn         1 16X       0.510000
     32 H6B         -2.6150     3.0320     1.0280 ha         1 16X       0.116000
     33 H2B         -2.9010    -0.9220    -0.6710 ha         1 16X       0.170000
     34 H5B         -5.0920     3.1970     1.0560 ha         1 16X       0.120000
     35 H4B         -6.4760     1.3120     0.2460 ha         1 16X       0.138000
@<TRIPOS>BOND
     1     1     2 1   
     2     1    24 1   
     3     1    25 1   
     4     2     3 2   
     5     2     6 1   
     6     3     4 1   
     7     4     5 1   
     8     4     7 2   
     9     5    26 1   
    10     5    27 1   
    11     5    28 1   
    12     6     7 1   
    13     7     8 1   
    14     8     9 ar  
    15     8    10 ar  
    16     9    13 ar  
    17    10    11 ar  
    18    10    29 1   
    19    11    12 ar  
    20    11    30 1   
    21    12    13 ar  
    22    13    14 1   
    23    14    15 1   
    24    14    31 1   
    25    15    16 ar  
    26    15    17 ar  
    27    16    23 ar  
    28    16    32 1   
    29    17    18 ar  
    30    17    33 1   
    31    18    19 1   
    32    18    22 ar  
    33    19    20 1   
    34    19    21 1   
    35    20    21 1   
    36    22    23 ar  
    37    22    35 1   
    38    23    34 1   
@<TRIPOS>SUBSTRUCTURE
     1 16X         1 TEMP              0 ****  ****    0 ROOT
