@<TRIPOS>MOLECULE
16Y
   50    49     1     0     0
SMALL
No Charge or Current Charge


@<TRIPOS>ATOM
      1 O19          9.6330    -0.6370     1.0510 o          1 16Y      -0.744000
      2 C17          9.1780    -0.2120    -0.0000 c          1 16Y       0.717000
      3 O18          9.6360    -0.4940    -1.0970 o          1 16Y      -0.744000
      4 C16          7.9220     0.6770     0.0570 c3         1 16Y      -0.204400
      5 C15          6.6450    -0.1950    -0.0040 c3         1 16Y      -0.054400
      6 C14          5.3400     0.6310     0.0490 c3         1 16Y      -0.079400
      7 C13          4.0680    -0.2420    -0.0110 c3         1 16Y      -0.075400
      8 C12          2.7640     0.5840     0.0420 c3         1 16Y      -0.075400
      9 C11          1.4910    -0.2890    -0.0190 c3         1 16Y      -0.074400
     10 C10          0.1880     0.5380     0.0340 c3         1 16Y      -0.074400
     11 C1          -1.0850    -0.3350    -0.0260 c3         1 16Y      -0.074400
     12 C2          -2.3880     0.4920     0.0270 c3         1 16Y      -0.074400
     13 C3          -3.6600    -0.3810    -0.0330 c3         1 16Y      -0.074400
     14 C4          -4.9640     0.4470     0.0200 c3         1 16Y      -0.074400
     15 C5          -6.2360    -0.4260    -0.0410 c3         1 16Y      -0.073400
     16 C6          -7.5390     0.4010     0.0120 c3         1 16Y      -0.075400
     17 C7          -8.8130    -0.4710    -0.0480 c3         1 16Y      -0.081400
     18 C8         -10.1120     0.3580     0.0050 c3         1 16Y       0.163600
     19 O9         -11.2450    -0.5130    -0.0550 oh         1 16Y      -0.663000
     20 H2           7.8750     1.2130     1.0130 hc         1 16Y       0.014200
     21 H3           7.8780     1.3350    -0.8200 hc         1 16Y       0.014200
     22 H4           6.6570    -0.7890    -0.9260 hc         1 16Y       0.037700
     23 H5           6.6540    -0.9060     0.8320 hc         1 16Y       0.037700
     24 H6           5.3260     1.2230     0.9730 hc         1 16Y       0.023700
     25 H7           4.0810    -0.8350    -0.9350 hc         1 16Y       0.034200
     26 H8           2.7510     1.1770     0.9650 hc         1 16Y       0.031700
     27 H9           2.7540     1.2940    -0.7950 hc         1 16Y       0.031700
     28 H10          1.5050    -0.8810    -0.9420 hc         1 16Y       0.035700
     29 H11          1.5020    -0.9990     0.8180 hc         1 16Y       0.035700
     30 H12          0.1750     1.1310     0.9580 hc         1 16Y       0.034700
     31 H13          0.1780     1.2480    -0.8020 hc         1 16Y       0.034700
     32 H14         -1.0710    -0.9270    -0.9500 hc         1 16Y       0.036700
     33 H15         -1.0740    -1.0450     0.8100 hc         1 16Y       0.036700
     34 H16         -2.4010     1.0850     0.9510 hc         1 16Y       0.035700
     35 H17         -2.3980     1.2020    -0.8090 hc         1 16Y       0.035700
     36 H18         -3.6470    -0.9730    -0.9570 hc         1 16Y       0.036700
     37 H19         -3.6500    -1.0910     0.8030 hc         1 16Y       0.036700
     38 H20         -4.9770     1.0390     0.9430 hc         1 16Y       0.035700
     39 H21         -4.9740     1.1570    -0.8170 hc         1 16Y       0.035700
     40 H22         -6.2230    -1.0190    -0.9640 hc         1 16Y       0.038700
     41 H23         -6.2260    -1.1360     0.7960 hc         1 16Y       0.038700
     42 H24         -7.5530     0.9940     0.9360 hc         1 16Y       0.035700
     43 H25         -7.5500     1.1120    -0.8240 hc         1 16Y       0.035700
     44 H26         -8.8030    -1.0620    -0.9720 hc         1 16Y       0.051700
     45 H27         -8.8060    -1.1800     0.7890 hc         1 16Y       0.051700
     46 H28        -10.1320     0.9430     0.9350 h1         1 16Y       0.014700
     47 H29        -10.1290     1.0620    -0.8380 h1         1 16Y       0.014700
     48 H30        -12.0460     0.0570    -0.0190 ho         1 16Y       0.439000
     49 H31          5.3290     1.3410    -0.7870 hc         1 16Y       0.023700
     50 H32          4.0780    -0.9520     0.8250 hc         1 16Y       0.034200
@<TRIPOS>BOND
     1     1     2 1   
     2     2     3 1   
     3     2     4 1   
     4     4     5 1   
     5     4    20 1   
     6     4    21 1   
     7     5     6 1   
     8     5    22 1   
     9     5    23 1   
    10     6     7 1   
    11     6    24 1   
    12     6    49 1   
    13     7     8 1   
    14     7    25 1   
    15     7    50 1   
    16     8     9 1   
    17     8    26 1   
    18     8    27 1   
    19     9    10 1   
    20     9    28 1   
    21     9    29 1   
    22    10    11 1   
    23    10    30 1   
    24    10    31 1   
    25    11    12 1   
    26    11    32 1   
    27    11    33 1   
    28    12    13 1   
    29    12    34 1   
    30    12    35 1   
    31    13    14 1   
    32    13    36 1   
    33    13    37 1   
    34    14    15 1   
    35    14    38 1   
    36    14    39 1   
    37    15    16 1   
    38    15    40 1   
    39    15    41 1   
    40    16    17 1   
    41    16    42 1   
    42    16    43 1   
    43    17    18 1   
    44    17    44 1   
    45    17    45 1   
    46    18    19 1   
    47    18    46 1   
    48    18    47 1   
    49    19    48 1   
@<TRIPOS>SUBSTRUCTURE
     1 16Y         1 TEMP              0 ****  ****    0 ROOT
