@<TRIPOS>MOLECULE
16Y
   50    49     1     0     0
SMALL
bcc


@<TRIPOS>ATOM
      1 O19          9.1210    -1.3330     0.1890 o          1 16Y      -0.849300
      2 C17          9.1370    -0.1000     0.0090 c          1 16Y       0.927600
      3 O18         10.1550     0.6080    -0.1480 o          1 16Y      -0.849300
      4 C16          7.7900     0.6440    -0.0120 c3         1 16Y      -0.204400
      5 C15          6.5430    -0.2250     0.0130 c3         1 16Y      -0.054400
      6 C14          5.2550     0.5900     0.0020 c3         1 16Y      -0.079400
      7 C13          3.9980    -0.2710     0.0110 c3         1 16Y      -0.075400
      8 C12          2.7090     0.5430     0.0090 c3         1 16Y      -0.075400
      9 C11          1.4520    -0.3180     0.0140 c3         1 16Y      -0.074400
     10 C10          0.1650     0.4980     0.0040 c3         1 16Y      -0.074400
     11 C1          -1.0940    -0.3610     0.0090 c3         1 16Y      -0.074400
     12 C2          -2.3790     0.4570     0.0010 c3         1 16Y      -0.074400
     13 C3          -3.6400    -0.3990     0.0050 c3         1 16Y      -0.074400
     14 C4          -4.9230     0.4230    -0.0020 c3         1 16Y      -0.074400
     15 C5          -6.1860    -0.4280     0.0010 c3         1 16Y      -0.073400
     16 C6          -7.4640     0.4020    -0.0050 c3         1 16Y      -0.075400
     17 C7          -8.7290    -0.4470    -0.0030 c3         1 16Y      -0.081400
     18 C8          -9.9830     0.4050    -0.0060 c3         1 16Y       0.140400
     19 O9         -11.1180    -0.4350    -0.0050 oh         1 16Y      -0.600800
     20 H2           7.7720     1.3330     0.8420 hc         1 16Y       0.014200
     21 H3           7.7690     1.2940    -0.8950 hc         1 16Y       0.014200
     22 H4           6.5460    -0.9030    -0.8460 hc         1 16Y       0.037700
     23 H5           6.5560    -0.8650     0.9000 hc         1 16Y       0.037700
     24 H6           5.2400     1.2620     0.8680 hc         1 16Y       0.023700
     25 H7           4.0080    -0.9360    -0.8600 hc         1 16Y       0.034200
     26 H8           2.6980     1.2060     0.8810 hc         1 16Y       0.031700
     27 H9           2.6960     1.1990    -0.8690 hc         1 16Y       0.031700
     28 H10          1.4650    -0.9850    -0.8550 hc         1 16Y       0.035700
     29 H11          1.4610    -0.9690     0.8950 hc         1 16Y       0.035700
     30 H12          0.1510     1.1650     0.8730 hc         1 16Y       0.034700
     31 H13          0.1550     1.1490    -0.8780 hc         1 16Y       0.034700
     32 H14         -1.0820    -1.0270    -0.8610 hc         1 16Y       0.036700
     33 H15         -1.0850    -1.0140     0.8890 hc         1 16Y       0.036700
     34 H16         -2.3910     1.1230     0.8720 hc         1 16Y       0.035700
     35 H17         -2.3880     1.1100    -0.8790 hc         1 16Y       0.035700
     36 H18         -3.6300    -1.0640    -0.8660 hc         1 16Y       0.036700
     37 H19         -3.6320    -1.0520     0.8850 hc         1 16Y       0.036700
     38 H20         -4.9320     1.0880     0.8700 hc         1 16Y       0.035700
     39 H21         -4.9290     1.0780    -0.8810 hc         1 16Y       0.035700
     40 H22         -6.1800    -1.0910    -0.8720 hc         1 16Y       0.038700
     41 H23         -6.1820    -1.0830     0.8790 hc         1 16Y       0.038700
     42 H24         -7.4670     1.0650     0.8680 hc         1 16Y       0.035700
     43 H25         -7.4650     1.0570    -0.8830 hc         1 16Y       0.035700
     44 H26         -8.7320    -1.1030    -0.8800 hc         1 16Y       0.051700
     45 H27         -8.7330    -1.0970     0.8780 hc         1 16Y       0.051700
     46 H28         -9.9730     1.0630     0.8740 h1         1 16Y       0.014700
     47 H29         -9.9710     1.0600    -0.8880 h1         1 16Y       0.014700
     48 H30        -11.9020     0.1200    -0.0040 ho         1 16Y       0.400000
     49 H31          5.2400     1.2400    -0.8810 hc         1 16Y       0.023700
     50 H32          4.0120    -0.9250     0.8900 hc         1 16Y       0.034200
@<TRIPOS>BOND
     1     1     2 1   
     2     2     3 1   
     3     2     4 1   
     4     4     5 1   
     5     4    20 1   
     6     4    21 1   
     7     5     6 1   
     8     5    22 1   
     9     5    23 1   
    10     6     7 1   
    11     6    24 1   
    12     6    49 1   
    13     7     8 1   
    14     7    25 1   
    15     7    50 1   
    16     8     9 1   
    17     8    26 1   
    18     8    27 1   
    19     9    10 1   
    20     9    28 1   
    21     9    29 1   
    22    10    11 1   
    23    10    30 1   
    24    10    31 1   
    25    11    12 1   
    26    11    32 1   
    27    11    33 1   
    28    12    13 1   
    29    12    34 1   
    30    12    35 1   
    31    13    14 1   
    32    13    36 1   
    33    13    37 1   
    34    14    15 1   
    35    14    38 1   
    36    14    39 1   
    37    15    16 1   
    38    15    40 1   
    39    15    41 1   
    40    16    17 1   
    41    16    42 1   
    42    16    43 1   
    43    17    18 1   
    44    17    44 1   
    45    17    45 1   
    46    18    19 1   
    47    18    46 1   
    48    18    47 1   
    49    19    48 1   
@<TRIPOS>SUBSTRUCTURE
     1 16Y         1 TEMP              0 ****  ****    0 ROOT
