@<TRIPOS>MOLECULE
16Z
   36    37     1     0     0
SMALL
bcc


@<TRIPOS>ATOM
      1 CAQ          5.2550     0.4540     1.1330 c3         1 16Z       0.125700
      2 OAP          4.6430    -0.1600     0.0170 os         1 16Z      -0.317900
      3 CAM          3.2970    -0.1780    -0.0510 ca         1 16Z       0.144100
      4 CAN          2.4530     0.3570     0.9210 ca         1 16Z      -0.191500
      5 CAO          1.0760     0.2850     0.7550 ca         1 16Z      -0.080500
      6 CAL          2.7370    -0.7750    -1.1800 ca         1 16Z      -0.191500
      7 CAK          1.3620    -0.8280    -1.3270 ca         1 16Z      -0.080500
      8 CAJ          0.5010    -0.3060    -0.3650 ca         1 16Z      -0.143300
      9 CAE         -0.9940    -0.3640    -0.5600 c5         1 16Z       0.267800
     10 CAG         -1.7030    -1.1110     0.5830 c5         1 16Z       0.090100
     11 OAD         -1.8540    -2.4690     0.2540 oh         1 16Z      -0.586800
     12 CAA         -3.0200    -0.3570     0.7720 c5         1 16Z       0.113100
     13 OAC         -3.9730    -0.7490    -0.1840 oh         1 16Z      -0.576800
     14 CAF         -2.5730     1.0750     0.5210 c5         1 16Z       0.210500
     15 CAB         -3.7040     2.0560     0.2660 c3         1 16Z      -0.078100
     16 NAH         -1.6750     0.9280    -0.6120 n3         1 16Z      -0.769600
     17 CAI         -0.9350     2.0900    -1.0200 c3         1 16Z       0.193100
     18 H1           4.9940     1.5130     1.2120 h1         1 16Z       0.040367
     19 H2           4.9910    -0.0430     2.0710 h1         1 16Z       0.040367
     20 H3           6.3280     0.3680     0.9850 h1         1 16Z       0.040367
     21 H4           2.8440     0.8270     1.8130 ha         1 16Z       0.140500
     22 H5           0.4490     0.7120     1.5310 ha         1 16Z       0.130500
     23 H6           3.3850    -1.1930    -1.9420 ha         1 16Z       0.140500
     24 H7           0.9480    -1.2830    -2.2200 ha         1 16Z       0.130500
     25 H8          -1.1780    -0.9090    -1.4960 h1         1 16Z       0.082700
     26 H9          -1.1190    -1.0010     1.5060 h1         1 16Z       0.040700
     27 H10         -2.0580    -2.9570     1.0580 ho         1 16Z       0.408000
     28 H11         -3.4090    -0.4780     1.7920 h1         1 16Z       0.039700
     29 H12         -3.8720    -1.6990    -0.3170 ho         1 16Z       0.413000
     30 H13         -2.0400     1.4130     1.4290 h1         1 16Z       0.014700
     31 H14         -4.4080     2.0460     1.1000 hc         1 16Z       0.042700
     32 H15         -3.3310     3.0760     0.1730 hc         1 16Z       0.042700
     33 H16         -4.2450     1.8080    -0.6460 hc         1 16Z       0.042700
     34 H18         -0.3000     1.8480    -1.8730 h1         1 16Z       0.028367
     35 H19         -1.6180     2.8770    -1.3440 h1         1 16Z       0.028367
     36 H20         -0.2870     2.5180    -0.2410 h1         1 16Z       0.028367
@<TRIPOS>BOND
     1     1     2 1   
     2     1    18 1   
     3     1    19 1   
     4     1    20 1   
     5     2     3 1   
     6     3     4 ar  
     7     3     6 ar  
     8     4     5 ar  
     9     4    21 1   
    10     5     8 ar  
    11     5    22 1   
    12     6     7 ar  
    13     6    23 1   
    14     7     8 ar  
    15     7    24 1   
    16     8     9 1   
    17     9    10 1   
    18     9    16 1   
    19     9    25 1   
    20    10    11 1   
    21    10    12 1   
    22    10    26 1   
    23    11    27 1   
    24    12    13 1   
    25    12    14 1   
    26    12    28 1   
    27    13    29 1   
    28    14    15 1   
    29    14    16 1   
    30    14    30 1   
    31    15    31 1   
    32    15    32 1   
    33    15    33 1   
    34    16    17 1   
    35    17    34 1   
    36    17    35 1   
    37    17    36 1   
@<TRIPOS>SUBSTRUCTURE
     1 16Z         1 TEMP              0 ****  ****    0 ROOT
