@<TRIPOS>MOLECULE
16Z
   36    37     1     0     0
SMALL
No Charge or Current Charge


@<TRIPOS>ATOM
      1 CAQ          5.2630     0.5140     1.2830 c3         1 16Z       0.148900
      2 OAP          4.6370    -0.0800     0.1310 os         1 16Z      -0.341100
      3 CAM          3.2660    -0.1390    -0.0120 ca         1 16Z       0.144100
      4 CAN          2.3760     0.3750     0.9530 ca         1 16Z      -0.173500
      5 CAO          0.9870     0.2860     0.7510 ca         1 16Z      -0.062500
      6 CAL          2.7510    -0.7360    -1.1710 ca         1 16Z      -0.173500
      7 CAK          1.3630    -0.8240    -1.3720 ca         1 16Z      -0.062500
      8 CAJ          0.4600    -0.3190    -0.4140 ca         1 16Z      -0.143300
      9 CAE         -1.0540    -0.4330    -0.6860 c5         1 16Z       0.267800
     10 CAG         -1.7210    -1.2030     0.5270 c5         1 16Z       0.113300
     11 OAD         -2.0110    -2.5870     0.2480 oh         1 16Z      -0.649000
     12 CAA         -3.0210    -0.3780     0.7960 c5         1 16Z       0.136300
     13 OAC         -4.0840    -0.7820    -0.0860 oh         1 16Z      -0.639000
     14 CAF         -2.4710     1.0680     0.5270 c5         1 16Z       0.210500
     15 CAB         -3.5540     2.1700     0.5250 c3         1 16Z      -0.078100
     16 NAH         -1.7700     0.8820    -0.7720 n3         1 16Z      -0.769600
     17 CAI         -1.0270     2.0310    -1.3400 c3         1 16Z       0.193100
     18 H1           4.9860     1.5720     1.3760 h1         1 16Z       0.040367
     19 H2           4.9680    -0.0100     2.2010 h1         1 16Z       0.040367
     20 H3           6.3550     0.4550     1.1950 h1         1 16Z       0.040367
     21 H4           2.7390     0.8470     1.8610 ha         1 16Z       0.122500
     22 H5           0.3250     0.6960     1.5080 ha         1 16Z       0.112500
     23 H6           3.4320    -1.1320    -1.9190 ha         1 16Z       0.122500
     24 H7           0.9890    -1.2900    -2.2810 ha         1 16Z       0.112500
     25 H8          -1.2170    -0.9950    -1.6170 h1         1 16Z       0.082700
     26 H9          -1.0810    -1.1430     1.4180 h1         1 16Z       0.040700
     27 H10         -2.0790    -3.0500     1.1140 ho         1 16Z       0.447000
     28 H11         -3.3430    -0.4820     1.8410 h1         1 16Z       0.039700
     29 H12         -3.7530    -1.6140    -0.4930 ho         1 16Z       0.452000
     30 H13         -1.7530     1.3370     1.3120 h1         1 16Z       0.014700
     31 H14         -4.1090     2.1700     1.4700 hc         1 16Z       0.042700
     32 H15         -3.1080     3.1640     0.4050 hc         1 16Z       0.042700
     33 H16         -4.2740     2.0230    -0.2890 hc         1 16Z       0.042700
     34 H18         -0.5590     1.7530    -2.2940 h1         1 16Z       0.028367
     35 H19         -1.7030     2.8750    -1.5300 h1         1 16Z       0.028367
     36 H20         -0.2400     2.3710    -0.6540 h1         1 16Z       0.028367
@<TRIPOS>BOND
     1     1     2 1   
     2     1    18 1   
     3     1    19 1   
     4     1    20 1   
     5     2     3 1   
     6     3     4 ar  
     7     3     6 ar  
     8     4     5 ar  
     9     4    21 1   
    10     5     8 ar  
    11     5    22 1   
    12     6     7 ar  
    13     6    23 1   
    14     7     8 ar  
    15     7    24 1   
    16     8     9 1   
    17     9    10 1   
    18     9    16 1   
    19     9    25 1   
    20    10    11 1   
    21    10    12 1   
    22    10    26 1   
    23    11    27 1   
    24    12    13 1   
    25    12    14 1   
    26    12    28 1   
    27    13    29 1   
    28    14    15 1   
    29    14    16 1   
    30    14    30 1   
    31    15    31 1   
    32    15    32 1   
    33    15    33 1   
    34    16    17 1   
    35    17    34 1   
    36    17    35 1   
    37    17    36 1   
@<TRIPOS>SUBSTRUCTURE
     1 16Z         1 TEMP              0 ****  ****    0 ROOT
