@<TRIPOS>MOLECULE
170
   54    57     1     0     0
SMALL
No Charge or Current Charge


@<TRIPOS>ATOM
      1 C8           7.7740     0.6950     1.2670 ca         1 170      -0.044000
      2 C2           7.3650    -0.2370     0.2800 ca         1 170      -0.222600
      3 N1           8.2750    -0.6140    -0.7250 na         1 170       0.483300
      4 C4           9.5750    -0.1200    -0.7010 ca         1 170      -0.216000
      5 C5           9.9930     0.7960     0.2770 ca         1 170      -0.068000
      6 C6           9.0830     1.2100     1.2600 ca         1 170      -0.135000
      7 C11          5.9410    -0.8250     0.2980 c3         1 170       0.240300
      8 C1           5.0500    -0.2060    -0.8250 c3         1 170       0.189800
      9 N18          3.6390    -0.6940    -0.8130 nu         1 170      -0.881400
     10 C21          2.5440    -0.1110    -0.1950 cc         1 170       0.611200
     11 C22          1.2670    -0.9280    -0.1560 c          1 170       0.431700
     12 N23          0.2060    -0.2730     0.4920 n          1 170      -0.246000
     13 C24          0.4130     1.0150     0.9930 cc         1 170       0.120600
     14 C25          1.6210     1.7000     0.9130 cd         1 170       0.002600
     15 N3           2.7410     1.1130     0.2960 nd         1 170      -0.626300
     16 O28          1.1480    -2.0570    -0.6380 o          1 170      -0.556000
     17 Cl2         -0.9500     1.7950     1.7520 cl         1 170      -0.121000
     18 C33         -1.1150    -0.9730     0.5940 c3         1 170      -0.005000
     19 C34         -2.1280    -0.5950    -0.5000 c          1 170       0.587100
     20 N37         -3.3700    -1.1770    -0.3570 ns         1 170      -0.512900
     21 O38         -1.8670     0.1590    -1.4270 o          1 170      -0.557100
     22 C39         -4.4950    -0.9890    -1.2790 c3         1 170       0.140300
     23 C40         -5.7770    -0.6590    -0.5190 ca         1 170      -0.068300
     24 C43         -6.6400    -1.7090    -0.1450 ca         1 170      -0.092000
     25 C44         -7.8270    -1.4410     0.5550 ca         1 170       0.128000
     26 C45         -8.1660    -0.1210     0.8870 ca         1 170      -0.090000
     27 C50         -6.1160     0.6730    -0.1770 ca         1 170       0.005800
     28 C47         -7.3120     0.9340     0.5220 ca         1 170      -0.097000
     29 F1           5.9660    -2.1730     0.1520 f          1 170      -0.102500
     30 F2           5.3390    -0.6100     1.4930 f          1 170      -0.102500
     31 Cl1         -8.8940    -2.7620     1.0140 cl         1 170      -0.175000
     32 O1           7.9130    -1.2880    -1.6970 o          1 170      -0.509000
     33 N14         -3.8300     3.2650    -0.1040 nc         1 170      -0.389000
     34 N13         -4.5110     3.5140    -1.2860 nc         1 170      -0.033000
     35 N12         -5.4330     2.6190    -1.5340 nd         1 170      -0.181800
     36 N11         -5.2890     1.7400    -0.5220 na         1 170       0.008500
     37 C46         -4.3460     2.1480     0.3800 cd         1 170       0.386400
     38 H8           7.0890     1.0240     2.0460 ha         1 170       0.154000
     39 H4          10.2460    -0.4670    -1.4850 h4         1 170       0.171000
     40 H5          11.0110     1.1830     0.2720 ha         1 170       0.138000
     41 H6           9.3910     1.9220     2.0230 ha         1 170       0.136000
     42 H11          5.0880     0.8880    -0.7270 h1         1 170       0.093700
     43 H12          5.5050    -0.4370    -1.7980 h1         1 170       0.093700
     44 HN1          3.4490    -1.6420    -1.1450 hn         1 170       0.530000
     45 H25          1.7350     2.7030     1.3200 h4         1 170       0.232000
     46 H331        -0.9770    -2.0600     0.5440 h1         1 170       0.089700
     47 H332        -1.5750    -0.7730     1.5680 h1         1 170       0.089700
     48 H37         -3.5010    -1.7940     0.4370 hn         1 170       0.311500
     49 H391        -4.2720    -0.1930    -2.0020 h1         1 170       0.078700
     50 H392        -4.6340    -1.9140    -1.8540 h1         1 170       0.078700
     51 H43         -6.3920    -2.7380    -0.3950 ha         1 170       0.141000
     52 H45         -9.0870     0.0840     1.4270 ha         1 170       0.142000
     53 H47         -7.5800     1.9560     0.7820 ha         1 170       0.136000
     54 H46         -4.1060     1.6250     1.2970 h5         1 170       0.075100
@<TRIPOS>BOND
     1     1     2 ar  
     2     1     6 ar  
     3     1    38 1   
     4     2     3 2   
     5     2     7 1   
     6     3     4 1   
     7     3    32 1   
     8     4     5 ar  
     9     4    39 1   
    10     5     6 ar  
    11     5    40 1   
    12     6    41 1   
    13     7     8 1   
    14     7    29 1   
    15     7    30 1   
    16     8     9 1   
    17     8    42 1   
    18     8    43 1   
    19     9    10 1   
    20     9    44 1   
    21    10    11 1   
    22    10    15 2   
    23    11    12 1   
    24    11    16 2   
    25    12    13 1   
    26    12    18 1   
    27    13    14 2   
    28    13    17 1   
    29    14    15 1   
    30    14    45 1   
    31    18    19 1   
    32    18    46 1   
    33    18    47 1   
    34    19    20 1   
    35    19    21 2   
    36    20    22 1   
    37    20    48 1   
    38    22    23 1   
    39    22    49 1   
    40    22    50 1   
    41    23    24 ar  
    42    23    27 ar  
    43    24    25 ar  
    44    24    51 1   
    45    25    26 ar  
    46    25    31 1   
    47    26    28 ar  
    48    26    52 1   
    49    27    28 ar  
    50    27    36 1   
    51    28    53 1   
    52    33    34 1   
    53    33    37 2   
    54    34    35 2   
    55    35    36 1   
    56    36    37 1   
    57    37    54 1   
@<TRIPOS>SUBSTRUCTURE
     1 170         1 TEMP              0 ****  ****    0 ROOT
