@<TRIPOS>MOLECULE
170
   54    57     1     0     0
SMALL
bcc


@<TRIPOS>ATOM
      1 C8           7.7280     0.9180     0.8400 ca         1 170      -0.062000
      2 C2           7.1920    -0.2250     0.2770 ca         1 170      -0.222600
      3 N1           7.9270    -0.9750    -0.5900 na         1 170       0.242600
      4 C4           9.1980    -0.6020    -0.8720 ca         1 170      -0.183300
      5 C5           9.7610     0.5230    -0.3190 ca         1 170      -0.086000
      6 C6           9.0230     1.3080     0.5520 ca         1 170      -0.153000
      7 C11          5.7740    -0.6700     0.5530 c3         1 170       0.482900
      8 C1           4.8320    -0.5270    -0.6370 c3         1 170       0.189800
      9 N18          3.4920    -0.9100    -0.3140 nu         1 170      -0.826200
     10 C21          2.5340    -0.0400     0.0590 cc         1 170       0.611200
     11 C22          1.2100    -0.6560     0.2940 c          1 170       0.574200
     12 N23          0.2420     0.2160     0.7110 n          1 170      -0.313000
     13 C24          0.4950     1.5730     0.7730 cc         1 170       0.045000
     14 C25          1.7270     2.0460     0.5100 cd         1 170       0.052600
     15 N3           2.7570     1.2290     0.1670 nd         1 170      -0.626300
     16 O28          1.0080    -1.8510     0.1420 o          1 170      -0.631500
     17 CL2         -0.8020     2.6130     1.1850 cl         1 170      -0.045400
     18 C33         -1.0770    -0.3240     0.9470 c3         1 170      -0.005000
     19 C34         -1.9280    -0.2370    -0.3160 c          1 170       0.654100
     20 N37         -3.1610    -0.7490    -0.1670 ns         1 170      -0.579900
     21 O38         -1.5070     0.2620    -1.3410 o          1 170      -0.557100
     22 C39         -4.1050    -0.8590    -1.2570 c3         1 170       0.140300
     23 C40         -5.5200    -0.7420    -0.7580 ca         1 170      -0.068300
     24 C43         -6.4090    -1.7850    -0.9780 ca         1 170      -0.110000
     25 C44         -7.7110    -1.7130    -0.5050 ca         1 170       0.036400
     26 C45         -8.1590    -0.6100     0.2000 ca         1 170      -0.108000
     27 C50         -5.9840     0.3720    -0.0590 ca         1 170       0.005800
     28 C47         -7.2840     0.4420     0.4150 ca         1 170      -0.115000
     29 F1           5.7620    -1.9470     1.0200 f          1 170      -0.223800
     30 F2           5.2960     0.0840     1.5810 f          1 170      -0.223800
     31 CL1         -8.7860    -3.0330    -0.7950 cl         1 170      -0.083400
     32 O1           7.4400    -2.0140    -1.1330 o          1 170      -0.319000
     33 N14         -3.9910     3.0430     1.0890 nc         1 170      -0.389000
     34 N13         -3.8990     3.1050    -0.2420 nc         1 170      -0.033000
     35 N12         -4.5720     2.1780    -0.7950 nd         1 170      -0.181800
     36 N11         -5.1260     1.4720     0.1860 na         1 170       0.008500
     37 C46         -4.7580     2.0190     1.3490 cd         1 170       0.386400
     38 H8           7.1220     1.5080     1.5120 ha         1 170       0.172000
     39 H4           9.7190    -1.2490    -1.5610 h4         1 170       0.189000
     40 H5          10.7780     0.7720    -0.5830 ha         1 170       0.156000
     41 H6           9.4410     2.2000     0.9950 ha         1 170       0.154000
     42 H11          4.8510     0.5110    -0.9710 h1         1 170       0.093700
     43 H12          5.1970    -1.1460    -1.4540 h1         1 170       0.093700
     44 HN1          3.2300    -1.8780    -0.3980 hn         1 170       0.474800
     45 H25          1.9300     3.1070     0.5650 h4         1 170       0.182000
     46 H331        -0.9780    -1.3640     1.2540 h1         1 170       0.089700
     47 H332        -1.5570     0.2010     1.7720 h1         1 170       0.089700
     48 H37         -3.3680    -1.2690     0.6730 hn         1 170       0.311500
     49 H391        -3.8900    -0.0800    -1.9870 h1         1 170       0.078700
     50 H392        -3.9900    -1.8160    -1.7730 h1         1 170       0.078700
     51 H43         -6.0760    -2.6640    -1.5130 ha         1 170       0.159000
     52 H45         -9.1740    -0.5570     0.5690 ha         1 170       0.160000
     53 H47         -7.6230     1.3240     0.9420 ha         1 170       0.154000
     54 H46         -5.0530     1.6500     2.3170 h5         1 170       0.075100
@<TRIPOS>BOND
     1     1     2 ar  
     2     1     6 ar  
     3     1    38 1   
     4     2     3 2   
     5     2     7 1   
     6     3     4 1   
     7     3    32 1   
     8     4     5 ar  
     9     4    39 1   
    10     5     6 ar  
    11     5    40 1   
    12     6    41 1   
    13     7     8 1   
    14     7    29 1   
    15     7    30 1   
    16     8     9 1   
    17     8    42 1   
    18     8    43 1   
    19     9    10 1   
    20     9    44 1   
    21    10    11 1   
    22    10    15 2   
    23    11    12 1   
    24    11    16 2   
    25    12    13 1   
    26    12    18 1   
    27    13    14 2   
    28    13    17 1   
    29    14    15 1   
    30    14    45 1   
    31    18    19 1   
    32    18    46 1   
    33    18    47 1   
    34    19    20 1   
    35    19    21 2   
    36    20    22 1   
    37    20    48 1   
    38    22    23 1   
    39    22    49 1   
    40    22    50 1   
    41    23    24 ar  
    42    23    27 ar  
    43    24    25 ar  
    44    24    51 1   
    45    25    26 ar  
    46    25    31 1   
    47    26    28 ar  
    48    26    52 1   
    49    27    28 ar  
    50    27    36 1   
    51    28    53 1   
    52    33    34 1   
    53    33    37 2   
    54    34    35 2   
    55    35    36 1   
    56    36    37 1   
    57    37    54 1   
@<TRIPOS>SUBSTRUCTURE
     1 170         1 TEMP              0 ****  ****    0 ROOT
