@<TRIPOS>MOLECULE
171
   23    23     1     0     0
SMALL
No Charge or Current Charge


@<TRIPOS>ATOM
      1 C3          -3.8570     1.5030     0.0160 ca         1 171      -0.063500
      2 C2          -2.5240     1.0570     0.0180 ca         1 171      -0.212500
      3 C1          -2.2370    -0.3200     0.0230 ca         1 171       0.362000
      4 C6          -3.2910    -1.2470     0.0270 ca         1 171      -0.212500
      5 N           -0.9270    -0.7930     0.0260 nu         1 171      -0.976200
      6 C8           0.3070    -0.0060     0.0230 c3         1 171       0.263800
      7 C7           1.4730    -0.9840     0.0270 c3         1 171      -0.378400
      8 S            3.0410    -0.1070     0.0240 s6         1 171       1.326600
      9 O1           3.0030     0.6810    -1.2160 o          1 171      -0.692867
     10 O2           3.0020     0.6900     1.2580 o          1 171      -0.692867
     11 O3           4.0360    -1.1890     0.0290 o          1 171      -0.692867
     12 C5          -4.6260    -0.8060     0.0240 ca         1 171      -0.063500
     13 C4          -4.9070     0.5700     0.0190 ca         1 171      -0.202000
     14 H3          -4.0750     2.5690     0.0110 ha         1 171       0.093500
     15 H2          -1.7220     1.7880     0.0150 ha         1 171       0.111000
     16 H6          -3.0790    -2.3120     0.0310 ha         1 171       0.111000
     17 HN          -0.8200    -1.8060     0.0300 hn         1 171       0.484000
     18 H11          0.3470     0.6400     0.9130 h1         1 171       0.052700
     19 H12          0.3480     0.6320    -0.8720 h1         1 171       0.052700
     20 H21          1.4640    -1.6130    -0.8680 h1         1 171       0.070200
     21 H22          1.4630    -1.6060     0.9280 h1         1 171       0.070200
     22 H5          -5.4400    -1.5290     0.0270 ha         1 171       0.093500
     23 H4          -5.9390     0.9140     0.0170 ha         1 171       0.097000
@<TRIPOS>BOND
     1     1     2 ar  
     2     1    13 ar  
     3     1    14 1   
     4     2     3 ar  
     5     2    15 1   
     6     3     4 ar  
     7     3     5 1   
     8     4    12 ar  
     9     4    16 1   
    10     5     6 1   
    11     5    17 1   
    12     6     7 1   
    13     6    18 1   
    14     6    19 1   
    15     7     8 1   
    16     7    20 1   
    17     7    21 1   
    18     8     9 1   
    19     8    10 1   
    20     8    11 1   
    21    12    13 ar  
    22    12    22 1   
    23    13    23 1   
@<TRIPOS>SUBSTRUCTURE
     1 171         1 TEMP              0 ****  ****    0 ROOT
