@<TRIPOS>MOLECULE
171
   23    23     1     0     0
SMALL
bcc


@<TRIPOS>ATOM
      1 C3          -3.7790     1.4760     0.0090 ca         1 171      -0.081500
      2 C2          -2.4740     1.0010     0.0190 ca         1 171      -0.230500
      3 C1          -2.2200    -0.3790     0.0300 ca         1 171       0.223600
      4 C6          -3.3240    -1.2520     0.0310 ca         1 171      -0.230500
      5 N           -0.9550    -0.8840     0.0390 nu         1 171      -0.782600
      6 C8           0.2370    -0.0760     0.0340 c3         1 171       0.263800
      7 C7           1.4620    -0.9730     0.0260 c3         1 171      -0.267600
      8 S            3.0020    -0.0360     0.0180 s6         1 171       1.215800
      9 O1           2.9610     0.7850    -1.2080 o          1 171      -0.692867
     10 O2           2.9850     0.7710     1.2540 o          1 171      -0.692867
     11 O3           4.0670    -1.0550     0.0020 o          1 171      -0.692867
     12 C5          -4.6150    -0.7600     0.0210 ca         1 171      -0.081500
     13 C4          -4.8620     0.6100     0.0100 ca         1 171      -0.220000
     14 H3          -3.9420     2.5470     0.0000 ha         1 171       0.111500
     15 H2          -1.6570     1.7110     0.0190 ha         1 171       0.129000
     16 H6          -3.1550    -2.3230     0.0390 ha         1 171       0.129000
     17 HN          -0.8520    -1.8840     0.0500 hn         1 171       0.428800
     18 H11          0.2710     0.5760     0.9130 h1         1 171       0.052700
     19 H12          0.2610     0.5740    -0.8480 h1         1 171       0.052700
     20 H21          1.4670    -1.6140    -0.8590 h1         1 171       0.070200
     21 H22          1.4780    -1.6160     0.9100 h1         1 171       0.070200
     22 H5          -5.4420    -1.4600     0.0220 ha         1 171       0.111500
     23 H4          -5.8760     0.9890     0.0010 ha         1 171       0.115000
@<TRIPOS>BOND
     1     1     2 ar  
     2     1    13 ar  
     3     1    14 1   
     4     2     3 ar  
     5     2    15 1   
     6     3     4 ar  
     7     3     5 1   
     8     4    12 ar  
     9     4    16 1   
    10     5     6 1   
    11     5    17 1   
    12     6     7 1   
    13     6    18 1   
    14     6    19 1   
    15     7     8 1   
    16     7    20 1   
    17     7    21 1   
    18     8     9 1   
    19     8    10 1   
    20     8    11 1   
    21    12    13 ar  
    22    12    22 1   
    23    13    23 1   
@<TRIPOS>SUBSTRUCTURE
     1 171         1 TEMP              0 ****  ****    0 ROOT
