@<TRIPOS>MOLECULE
172
   18    19     1     0     0
SMALL
No Charge or Current Charge


@<TRIPOS>ATOM
      1 C1           0.3790     0.1370    -2.1610 ca         1 172       0.084100
      2 C2           1.2140     0.0170    -1.0310 ca         1 172      -0.085000
      3 C3           0.6220    -0.0370     0.2390 ca         1 172       0.113400
      4 C4          -0.7410     0.0250     0.3730 ca         1 172      -0.092200
      5 C5          -1.6040     0.1440    -0.7230 ca         1 172      -0.097000
      6 C6          -1.0270     0.2000    -2.0090 ca         1 172      -0.133000
      7 N10          1.2510    -0.1530     1.4700 nc         1 172      -0.639100
      8 C11          0.2040    -0.1540     2.2870 cd         1 172       0.632700
      9 N12         -1.0460    -0.0480     1.7050 na         1 172      -0.348600
     10 N14          0.3590    -0.2490     3.6080 nv         1 172      -1.007200
     11 O17          0.9340     0.1910    -3.4070 oh         1 172      -0.560100
     12 HC2          2.2940    -0.0320    -1.1390 ha         1 172       0.138000
     13 HC5         -2.6830     0.1910    -0.5890 ha         1 172       0.117000
     14 HC6         -1.6720     0.2920    -2.8800 ha         1 172       0.122000
     15 H12         -1.9440    -0.0500     2.1650 hn         1 172       0.354000
     16 H141         1.2990    -0.0930     3.9530 hn         1 172       0.473500
     17 H142        -0.3970     0.0790     4.1990 hn         1 172       0.473500
     18 H17          0.2140     0.2730    -4.0700 ho         1 172       0.454000
@<TRIPOS>BOND
     1     1     2 ar  
     2     1     6 ar  
     3     1    11 1   
     4     2     3 ar  
     5     2    12 1   
     6     3     4 ar  
     7     3     7 1   
     8     4     5 ar  
     9     4     9 1   
    10     5     6 ar  
    11     5    13 1   
    12     6    14 1   
    13     7     8 2   
    14     8     9 1   
    15     8    10 1   
    16     9    15 1   
    17    10    16 1   
    18    10    17 1   
    19    11    18 1   
@<TRIPOS>SUBSTRUCTURE
     1 172         1 TEMP              0 ****  ****    0 ROOT
