@<TRIPOS>MOLECULE
172
   18    19     1     0     0
SMALL
abcg2


@<TRIPOS>ATOM
      1 C1           0.2700     0.0220    -2.1750 ca         1 172       0.084100
      2 C2           1.1360    -0.0190    -1.0910 ca         1 172      -0.085000
      3 C3           0.5870    -0.0430     0.1870 ca         1 172       0.113400
      4 C4          -0.8090    -0.0200     0.3450 ca         1 172      -0.092200
      5 C5          -1.6770     0.0290    -0.7290 ca         1 172      -0.097000
      6 C6          -1.1150     0.0530    -2.0000 ca         1 172      -0.133000
      7 N10          1.2090    -0.0790     1.4130 nc         1 172      -0.639100
      8 C11          0.2330    -0.0860     2.2840 cd         1 172       0.632700
      9 N12         -1.0010    -0.0440     1.7100 na         1 172      -0.348600
     10 N14          0.3930    -0.1800     3.6280 nv         1 172      -1.007200
     11 O17          0.7830     0.0030    -3.4480 oh         1 172      -0.560100
     12 HC2          2.2080    -0.0390    -1.2400 ha         1 172       0.138000
     13 HC5         -2.7510     0.0470    -0.5980 ha         1 172       0.117000
     14 HC6         -1.7590     0.0810    -2.8690 ha         1 172       0.122000
     15 H12         -1.8820    -0.1270     2.1850 hn         1 172       0.354000
     16 H141         1.3250     0.0110     3.9530 hn         1 172       0.473500
     17 H142        -0.3140     0.2220     4.2170 hn         1 172       0.473500
     18 H17          0.8200     0.9030    -3.7810 ho         1 172       0.454000
@<TRIPOS>BOND
     1     1     2 ar  
     2     1     6 ar  
     3     1    11 1   
     4     2     3 ar  
     5     2    12 1   
     6     3     4 ar  
     7     3     7 1   
     8     4     5 ar  
     9     4     9 1   
    10     5     6 ar  
    11     5    13 1   
    12     6    14 1   
    13     7     8 2   
    14     8     9 1   
    15     8    10 1   
    16     9    15 1   
    17    10    16 1   
    18    10    17 1   
    19    11    18 1   
@<TRIPOS>SUBSTRUCTURE
     1 172         1 TEMP              0 ****  ****    0 ROOT
