@<TRIPOS>MOLECULE
173
   16    16     1     0     0
SMALL
No Charge or Current Charge


@<TRIPOS>ATOM
      1 O1B          0.7700     1.0450     2.5800 o          1 173      -0.702000
      2 C1           0.4470    -0.0560     2.1390 c          1 173       0.663000
      3 O1A          0.9600    -1.1100     2.5120 o          1 173      -0.702000
      4 C2          -0.7070    -0.1230     1.0110 c          1 173       0.450700
      5 O2          -1.8970    -0.2370     1.3280 o          1 173      -0.575100
      6 C1G         -0.3020    -0.0410    -0.4500 ca         1 173      -0.138600
      7 C2D         -1.2860    -0.0960    -1.4650 ca         1 173      -0.064500
      8 C2E         -0.9200    -0.0210    -2.8200 ca         1 173      -0.145500
      9 C3           0.4300     0.1100    -3.1800 ca         1 173      -0.117000
     10 C1E          1.4150     0.1650    -2.1820 ca         1 173      -0.145500
     11 C1D          1.0550     0.0910    -0.8250 ca         1 173      -0.064500
     12 H2D         -2.3380    -0.1960    -1.2070 ha         1 173       0.132000
     13 H2E         -1.6850    -0.0640    -3.5910 ha         1 173       0.094000
     14 H3           0.7120     0.1680    -4.2290 ha         1 173       0.088000
     15 H1E          2.4620     0.2660    -2.4600 ha         1 173       0.094000
     16 H1D          1.8420     0.1360    -0.0750 ha         1 173       0.132000
@<TRIPOS>BOND
     1     1     2 1   
     2     2     3 1   
     3     2     4 1   
     4     4     5 2   
     5     4     6 1   
     6     6     7 ar  
     7     6    11 ar  
     8     7     8 ar  
     9     7    12 1   
    10     8     9 ar  
    11     8    13 1   
    12     9    10 ar  
    13     9    14 1   
    14    10    11 ar  
    15    10    15 1   
    16    11    16 1   
@<TRIPOS>SUBSTRUCTURE
     1 173         1 TEMP              0 ****  ****    0 ROOT
