@<TRIPOS>MOLECULE
173
   16    16     1     0     0
SMALL
bcc


@<TRIPOS>ATOM
      1 O1B          0.4580     1.0930     2.6520 o          1 173      -0.807300
      2 C1           0.4110     0.0040     2.0620 c          1 173       0.873600
      3 O1A          1.0990    -1.0160     2.2280 o          1 173      -0.807300
      4 C2          -0.6690    -0.1240     0.9880 c          1 173       0.450700
      5 O2          -1.8340    -0.2750     1.3080 o          1 173      -0.575100
      6 C1G         -0.2680    -0.0670    -0.4440 ca         1 173      -0.138600
      7 C2D         -1.2560    -0.0800    -1.4290 ca         1 173      -0.082500
      8 C2E         -0.9120     0.0060    -2.7680 ca         1 173      -0.163500
      9 C3           0.4250     0.1070    -3.1380 ca         1 173      -0.135000
     10 C1E          1.4140     0.1180    -2.1650 ca         1 173      -0.163500
     11 C1D          1.0710     0.0310    -0.8230 ca         1 173      -0.082500
     12 H2D         -2.2980    -0.1520    -1.1450 ha         1 173       0.150000
     13 H2E         -1.6850    -0.0020    -3.5260 ha         1 173       0.112000
     14 H3           0.6920     0.1760    -4.1840 ha         1 173       0.106000
     15 H1E          2.4560     0.1940    -2.4490 ha         1 173       0.112000
     16 H1D          1.8540     0.0250    -0.0780 ha         1 173       0.150000
@<TRIPOS>BOND
     1     1     2 1   
     2     2     3 1   
     3     2     4 1   
     4     4     5 2   
     5     4     6 1   
     6     6     7 ar  
     7     6    11 ar  
     8     7     8 ar  
     9     7    12 1   
    10     8     9 ar  
    11     8    13 1   
    12     9    10 ar  
    13     9    14 1   
    14    10    11 ar  
    15    10    15 1   
    16    11    16 1   
@<TRIPOS>SUBSTRUCTURE
     1 173         1 TEMP              0 ****  ****    0 ROOT
