@<TRIPOS>MOLECULE
174
   14    14     1     0     0
SMALL
abcg2


@<TRIPOS>ATOM
      1 CL4          0.0130    -0.0280    -3.3750 cl         1 174      -0.273000
      2 C4           0.0080    -0.0200    -1.6390 ca         1 174       0.100000
      3 C5          -1.2010     0.0060    -0.9610 ca         1 174      -0.139000
      4 C6          -1.1940     0.0110     0.4260 ca         1 174      -0.081000
      5 C3           1.2130    -0.0400    -0.9540 ca         1 174      -0.139000
      6 C2           1.1970    -0.0340     0.4330 ca         1 174      -0.081000
      7 C1          -0.0010    -0.0080     1.1430 ca         1 174      -0.131600
      8 C           -0.0050    -0.0020     2.6680 c          1 174       0.713600
      9 O1           1.1080    -0.0200     3.2260 o          1 174      -0.718000
     10 O2          -1.1210     0.0200     3.2200 o          1 174      -0.718000
     11 H5          -2.1360     0.0220    -1.5060 ha         1 174       0.102000
     12 H6          -2.1350     0.0320     0.9580 ha         1 174       0.131000
     13 H3           2.1510    -0.0600    -1.4920 ha         1 174       0.102000
     14 H2           2.1350    -0.0490     0.9720 ha         1 174       0.131000
@<TRIPOS>BOND
     1     1     2 1   
     2     2     3 ar  
     3     2     5 ar  
     4     3     4 ar  
     5     3    11 1   
     6     4     7 ar  
     7     4    12 1   
     8     5     6 ar  
     9     5    13 1   
    10     6     7 ar  
    11     6    14 1   
    12     7     8 1   
    13     8     9 1   
    14     8    10 1   
@<TRIPOS>SUBSTRUCTURE
     1 174         1 TEMP              0 ****  ****    0 ROOT
