@<TRIPOS>MOLECULE
174
   14    14     1     0     0
SMALL
No Charge or Current Charge


@<TRIPOS>ATOM
      1 Cl4          0.0130    -0.0270    -3.4280 cl         1 174      -0.273000
      2 C4           0.0080    -0.0200    -1.6700 ca         1 174       0.100000
      3 C5          -1.2080     0.0060    -0.9730 ca         1 174      -0.139000
      4 C6          -1.2150     0.0120     0.4340 ca         1 174      -0.081000
      5 C3           1.2200    -0.0400    -0.9650 ca         1 174      -0.139000
      6 C2           1.2180    -0.0340     0.4410 ca         1 174      -0.081000
      7 C1          -0.0010    -0.0080     1.1620 ca         1 174      -0.131600
      8 C           -0.0050    -0.0020     2.6830 c          1 174       0.713600
      9 O1           1.0670    -0.0200     3.2720 o          1 174      -0.718000
     10 O2          -1.0810     0.0210     3.2650 o          1 174      -0.718000
     11 H5          -2.1470     0.0210    -1.5200 ha         1 174       0.102000
     12 H6          -2.1690     0.0320     0.9560 ha         1 174       0.131000
     13 H3           2.1630    -0.0600    -1.5070 ha         1 174       0.102000
     14 H2           2.1700    -0.0500     0.9700 ha         1 174       0.131000
@<TRIPOS>BOND
     1     1     2 1   
     2     2     3 ar  
     3     2     5 ar  
     4     3     4 ar  
     5     3    11 1   
     6     4     7 ar  
     7     4    12 1   
     8     5     6 ar  
     9     5    13 1   
    10     6     7 ar  
    11     6    14 1   
    12     7     8 1   
    13     8     9 1   
    14     8    10 1   
@<TRIPOS>SUBSTRUCTURE
     1 174         1 TEMP              0 ****  ****    0 ROOT
