@<TRIPOS>MOLECULE
175
   30    30     1     0     0
SMALL
bcc


@<TRIPOS>ATOM
      1 N           -0.8030     3.3900     0.3030 n8         1 175      -0.907800
      2 C0          -1.0910     2.0000    -0.0120 c3         1 175       0.147500
      3 C2           0.1410     1.1490     0.2940 c5         1 175       0.318900
      4 CB          -1.4790     1.8650    -1.4780 c3         1 175      -0.085100
      5 N2           1.3100     1.6210    -0.4210 n7         1 175      -0.784200
      6 C3           2.4560     1.3550     0.4380 c5         1 175       0.017500
      7 C5           1.8690     1.2220     1.8330 c          1 175       0.689500
      8 O6           2.4900     1.1490     2.8830 o          1 175      -0.647500
      9 C4           3.5370     2.4320     0.3170 c3         1 175       0.156800
     10 N0           0.5310     1.2020     1.7020 n          1 175      -0.454800
     11 CA          -0.3080     0.6870     2.7490 c3         1 175      -0.059000
     12 N5           4.7930     2.1540     0.9820 n8         1 175      -0.893800
     13 C           -0.2670    -0.8550     2.8820 c          1 175       0.918600
     14 O            0.5330    -1.4720     2.1590 o          1 175      -0.830300
     15 OXT         -1.0530    -1.3220     3.7270 o          1 175      -0.830300
     16 H           -0.6800     3.5010     1.3020 hn         1 175       0.342800
     17 H2          -1.5920     3.9690     0.0470 hn         1 175       0.342800
     18 HC0         -1.9220     1.5930     0.5820 h1         1 175       0.036700
     19 HC2         -0.0800     0.1070     0.0280 h2         1 175       0.096700
     20 HB1         -0.6900     2.2310    -2.1350 hc         1 175       0.034700
     21 HB2         -1.6780     0.8240    -1.7300 hc         1 175       0.034700
     22 HB3         -2.3840     2.4360    -1.6890 hc         1 175       0.034700
     23 HN2A         1.2000     2.6290    -0.5090 hn         1 175       0.363800
     24 H3           2.8990     0.3830     0.1790 h1         1 175       0.090700
     25 H41          3.1380     3.3780     0.6970 h1         1 175       0.045700
     26 H42          3.7340     2.5900    -0.7470 h1         1 175       0.045700
     27 HA1         -1.3370     1.0120     2.5860 h1         1 175       0.038700
     28 HA2          0.0010     1.1310     3.6980 h1         1 175       0.038700
     29 HN51         5.2020     1.3120     0.5960 hn         1 175       0.348300
     30 HN52         4.6230     1.9590     1.9600 hn         1 175       0.348300
@<TRIPOS>BOND
     1     1     2 1   
     2     1    16 1   
     3     1    17 1   
     4     2     3 1   
     5     2     4 1   
     6     2    18 1   
     7     3     5 1   
     8     3    10 1   
     9     3    19 1   
    10     4    20 1   
    11     4    21 1   
    12     4    22 1   
    13     5     6 1   
    14     5    23 1   
    15     6     7 1   
    16     6     9 1   
    17     6    24 1   
    18     7     8 2   
    19     7    10 1   
    20     9    12 1   
    21     9    25 1   
    22     9    26 1   
    23    10    11 1   
    24    11    13 1   
    25    11    27 1   
    26    11    28 1   
    27    12    29 1   
    28    12    30 1   
    29    13    14 1   
    30    13    15 1   
@<TRIPOS>SUBSTRUCTURE
     1 175         1 TEMP              0 ****  ****    0 ROOT
