@<TRIPOS>MOLECULE
176
   61    64     1     0     0
SMALL
bcc


@<TRIPOS>ATOM
      1 CD1         20.0900   -15.9150    24.6390 ca         1 176      -0.122250
      2 CE1         21.1150   -14.9830    24.7130 ca         1 176      -0.129000
      3 CZ1         20.9140   -13.7720    25.3630 ca         1 176      -0.128000
      4 CE2         19.6800   -13.5020    25.9380 ca         1 176      -0.129000
      5 CD2         18.6540   -14.4350    25.8550 ca         1 176      -0.122250
      6 CG1         18.8420   -15.6490    25.2020 ca         1 176      -0.074800
      7 CB0         17.6950   -16.6340    25.0900 c3         1 176       0.026900
      8 CA0         17.1420   -16.6830    23.6520 c3         1 176       0.109500
      9 C0          16.7550   -15.2600    23.2490 c          1 176       0.678100
     10 O0          15.8350   -14.6860    23.8150 o          1 176      -0.580100
     11 N0          15.9430   -17.5040    23.6190 n8         1 176      -0.867800
     12 CG2         18.0800   -17.9940    25.6320 ca         1 176      -0.074800
     13 CD3         18.6760   -18.9820    24.8510 ca         1 176      -0.122250
     14 CE3         19.0460   -20.2010    25.4050 ca         1 176      -0.129000
     15 CZ2         18.8280   -20.4540    26.7520 ca         1 176      -0.128000
     16 CE4         18.2320   -19.4780    27.5410 ca         1 176      -0.129000
     17 CD4         17.8610   -18.2630    26.9820 ca         1 176      -0.122250
     18 N           17.4540   -14.6520    22.2760 n          1 176      -0.468800
     19 CA          17.0970   -13.2980    21.8990 c5         1 176       0.028700
     20 C           15.6950   -13.2320    21.3050 c          1 176       0.676100
     21 O           15.2070   -14.1710    20.7010 o          1 176      -0.589100
     22 CB          18.1400   -12.9140    20.8340 c5         1 176      -0.087400
     23 CG          19.3010   -13.8610    21.1100 c5         1 176      -0.095400
     24 CD          18.5990   -15.1460    21.5170 c5         1 176       0.110000
     25 N1          15.1060   -12.0300    21.4370 ns         1 176      -0.568900
     26 C1          13.8690   -11.6600    20.7880 c3         1 176       0.150300
     27 C2          12.9640   -10.9140    21.7290 ca         1 176      -0.098300
     28 C3          12.2920   -11.5430    22.7760 ca         1 176       0.043400
     29 C4          11.4760   -10.8330    23.6420 ca         1 176      -0.119000
     30 CE          11.3180    -9.4660    23.4800 ca         1 176      -0.107000
     31 CDB         11.9800    -8.8310    22.4430 ca         1 176       0.019400
     32 CGB         12.7940    -9.5420    21.5770 ca         1 176      -0.111000
     33 CL1         12.4520   -13.2500    23.0020 cl         1 176      -0.063400
     34 CL2         11.7930    -7.1250    22.2240 cl         1 176      -0.105400
     35 HD1         20.2700   -16.8580    24.1370 ha         1 176       0.131500
     36 HE1         22.0750   -15.2060    24.2650 ha         1 176       0.130000
     37 HZ1         21.7150   -13.0460    25.4240 ha         1 176       0.130000
     38 HE2         19.5130   -12.5640    26.4520 ha         1 176       0.130000
     39 HD2         17.6930   -14.2140    26.3030 ha         1 176       0.131500
     40 HB0         16.8790   -16.2600    25.7140 hc         1 176       0.093700
     41 HA0         17.9280   -17.0600    22.9880 h1         1 176       0.021700
     42 HN01        15.6050   -17.5750    22.6670 hn         1 176       0.349300
     43 HN02        16.1800   -18.4500    23.8920 hn         1 176       0.349300
     44 HD3         18.8600   -18.8140    23.7960 ha         1 176       0.131500
     45 HE3         19.5060   -20.9550    24.7790 ha         1 176       0.130000
     46 HZ2         19.1150   -21.4040    27.1830 ha         1 176       0.130000
     47 HE4         18.0510   -19.6630    28.5920 ha         1 176       0.130000
     48 HD4         17.3940   -17.5090    27.6050 ha         1 176       0.131500
     49 HA          17.1710   -12.6360    22.7680 h1         1 176       0.072700
     50 HB1         17.7480   -13.0960    19.8310 hc         1 176       0.058200
     51 HB2         18.4110   -11.8620    20.8970 hc         1 176       0.058200
     52 HG1         19.9080   -13.4950    21.9410 hc         1 176       0.057700
     53 HG2         19.9530   -13.9980    20.2480 hc         1 176       0.057700
     54 HD1A        19.2410   -15.7830    22.1190 h1         1 176       0.052200
     55 HD2A        18.2700   -15.7140    20.6420 h1         1 176       0.052200
     56 HN          15.6060   -11.2990    21.9190 hn         1 176       0.312500
     57 HA11        14.0720   -11.0330    19.9160 h1         1 176       0.066700
     58 HA12        13.3860   -12.5660    20.4250 h1         1 176       0.066700
     59 HD          10.9590   -11.3410    24.4450 ha         1 176       0.154000
     60 HE          10.6820    -8.9110    24.1560 ha         1 176       0.151000
     61 HG          13.3070    -9.0330    20.7710 ha         1 176       0.146000
@<TRIPOS>BOND
     1     1     2 ar  
     2     1     6 ar  
     3     1    35 1   
     4     2     3 ar  
     5     2    36 1   
     6     3     4 ar  
     7     3    37 1   
     8     4     5 ar  
     9     4    38 1   
    10     5     6 ar  
    11     5    39 1   
    12     6     7 1   
    13     7     8 1   
    14     7    12 1   
    15     7    40 1   
    16     8     9 1   
    17     8    11 1   
    18     8    41 1   
    19     9    10 2   
    20     9    18 1   
    21    11    42 1   
    22    11    43 1   
    23    12    13 ar  
    24    12    17 ar  
    25    13    14 ar  
    26    13    44 1   
    27    14    15 ar  
    28    14    45 1   
    29    15    16 ar  
    30    15    46 1   
    31    16    17 ar  
    32    16    47 1   
    33    17    48 1   
    34    18    19 1   
    35    18    24 1   
    36    19    20 1   
    37    19    22 1   
    38    19    49 1   
    39    20    21 2   
    40    20    25 1   
    41    22    23 1   
    42    22    50 1   
    43    22    51 1   
    44    23    24 1   
    45    23    52 1   
    46    23    53 1   
    47    24    54 1   
    48    24    55 1   
    49    25    26 1   
    50    25    56 1   
    51    26    27 1   
    52    26    57 1   
    53    26    58 1   
    54    27    28 ar  
    55    27    32 ar  
    56    28    29 ar  
    57    28    33 1   
    58    29    30 ar  
    59    29    59 1   
    60    30    31 ar  
    61    30    60 1   
    62    31    32 ar  
    63    31    34 1   
    64    32    61 1   
@<TRIPOS>SUBSTRUCTURE
     1 176         1 TEMP              0 ****  ****    0 ROOT
