@<TRIPOS>MOLECULE
176
   61    64     1     0     0
SMALL
No Charge or Current Charge


@<TRIPOS>ATOM
      1 CD1         20.1200   -15.9810    25.0160 ca         1 176      -0.104250
      2 CE1         20.9630   -14.8890    25.2860 ca         1 176      -0.111000
      3 CZ1         20.4580   -13.7560    25.9440 ca         1 176      -0.110000
      4 CE2         19.1100   -13.7180    26.3340 ca         1 176      -0.111000
      5 CD2         18.2680   -14.8100    26.0650 ca         1 176      -0.104250
      6 CG1         18.7620   -15.9510    25.4000 ca         1 176      -0.074800
      7 CB0         17.8190   -17.1190    25.0820 c3         1 176       0.026900
      8 CA0         17.2880   -17.0390    23.6160 c3         1 176       0.109500
      9 C0          16.6160   -15.6270    23.3630 c          1 176       0.611100
     10 O0          15.5550   -15.3300    23.9070 o          1 176      -0.580100
     11 N0          16.4140   -18.2250    23.2940 n8         1 176      -0.978200
     12 CG2         18.4600   -18.4660    25.4690 ca         1 176      -0.074800
     13 CD3         19.2170   -19.2350    24.5540 ca         1 176      -0.104250
     14 CE3         19.7930   -20.4540    24.9520 ca         1 176      -0.111000
     15 CZ2         19.6260   -20.9180    26.2660 ca         1 176      -0.110000
     16 CE4         18.8850   -20.1590    27.1850 ca         1 176      -0.111000
     17 CD4         18.3080   -18.9400    26.7890 ca         1 176      -0.104250
     18 N           17.2310   -14.7050    22.4800 n          1 176      -0.401800
     19 CA          16.6120   -13.3890    22.1410 c5         1 176       0.028700
     20 C           15.1840   -13.4580    21.5090 c          1 176       0.609100
     21 O           14.6530   -14.4130    20.9540 o          1 176      -0.589100
     22 CB          17.6010   -12.8530    21.0620 c5         1 176      -0.087400
     23 CG          18.9550   -13.4040    21.5660 c5         1 176      -0.095400
     24 CD          18.5880   -14.8660    21.9150 c5         1 176       0.110000
     25 N1          14.5600   -12.2390    21.6600 ns         1 176      -0.501900
     26 C1          13.2040   -11.9520    21.2010 c3         1 176       0.150300
     27 C2          12.7400   -10.5800    21.6720 ca         1 176      -0.098300
     28 C3          12.2400   -10.3800    22.9800 ca         1 176       0.135000
     29 C4          11.8220    -9.1010    23.3890 ca         1 176      -0.101000
     30 CE          11.8990    -8.0140    22.5020 ca         1 176      -0.089000
     31 CDB         12.3970    -8.2070    21.2040 ca         1 176       0.111000
     32 CGB         12.8160    -9.4820    20.7900 ca         1 176      -0.093000
     33 Cl1         12.1350   -11.7110    24.1330 cl         1 176      -0.155000
     34 Cl2         12.4980    -6.8470    20.0920 cl         1 176      -0.197000
     35 HD1         20.5280   -16.8440    24.4960 ha         1 176       0.113500
     36 HE1         22.0070   -14.9210    24.9810 ha         1 176       0.112000
     37 HZ1         21.1100   -12.9110    26.1510 ha         1 176       0.112000
     38 HE2         18.7170   -12.8410    26.8440 ha         1 176       0.112000
     39 HD2         17.2240   -14.7610    26.3690 ha         1 176       0.113500
     40 HB0         16.9280   -17.0060    25.7130 hc         1 176       0.093700
     41 HA0         18.1510   -17.1250    22.9470 h1         1 176       0.021700
     42 HN01        16.2430   -18.2630    22.2820 hn         1 176       0.404500
     43 HN02        16.9370   -19.0860    23.4900 hn         1 176       0.404500
     44 HD3         19.3740   -18.8920    23.5350 ha         1 176       0.113500
     45 HE3         20.3740   -21.0370    24.2410 ha         1 176       0.112000
     46 HZ2         20.0730   -21.8610    26.5730 ha         1 176       0.112000
     47 HE4         18.7580   -20.5140    28.2060 ha         1 176       0.112000
     48 HD4         17.7410   -18.3600    27.5140 ha         1 176       0.113500
     49 HA          16.5890   -12.7430    23.0290 h1         1 176       0.072700
     50 HB1         17.3670   -13.2500    20.0660 hc         1 176       0.058200
     51 HB2         17.5890   -11.7590    20.9880 hc         1 176       0.058200
     52 HG1         19.2980   -12.8620    22.4560 hc         1 176       0.057700
     53 HG2         19.7490   -13.3390    20.8140 hc         1 176       0.057700
     54 HD1A        19.3040   -15.2930    22.6260 h1         1 176       0.052200
     55 HD2A        18.5610   -15.5010    21.0190 h1         1 176       0.052200
     56 HN          15.0760   -11.5050    22.1290 hn         1 176       0.312500
     57 HA11        13.1880   -11.9950    20.1030 h1         1 176       0.066700
     58 HA12        12.5220   -12.7300    21.5700 h1         1 176       0.066700
     59 HD          11.4390    -8.9540    24.3960 ha         1 176       0.136000
     60 HE          11.5760    -7.0250    22.8190 ha         1 176       0.133000
     61 HG          13.2020    -9.6150    19.7820 ha         1 176       0.128000
@<TRIPOS>BOND
     1     1     2 ar  
     2     1     6 ar  
     3     1    35 1   
     4     2     3 ar  
     5     2    36 1   
     6     3     4 ar  
     7     3    37 1   
     8     4     5 ar  
     9     4    38 1   
    10     5     6 ar  
    11     5    39 1   
    12     6     7 1   
    13     7     8 1   
    14     7    12 1   
    15     7    40 1   
    16     8     9 1   
    17     8    11 1   
    18     8    41 1   
    19     9    10 2   
    20     9    18 1   
    21    11    42 1   
    22    11    43 1   
    23    12    13 ar  
    24    12    17 ar  
    25    13    14 ar  
    26    13    44 1   
    27    14    15 ar  
    28    14    45 1   
    29    15    16 ar  
    30    15    46 1   
    31    16    17 ar  
    32    16    47 1   
    33    17    48 1   
    34    18    19 1   
    35    18    24 1   
    36    19    20 1   
    37    19    22 1   
    38    19    49 1   
    39    20    21 2   
    40    20    25 1   
    41    22    23 1   
    42    22    50 1   
    43    22    51 1   
    44    23    24 1   
    45    23    52 1   
    46    23    53 1   
    47    24    54 1   
    48    24    55 1   
    49    25    26 1   
    50    25    56 1   
    51    26    27 1   
    52    26    57 1   
    53    26    58 1   
    54    27    28 ar  
    55    27    32 ar  
    56    28    29 ar  
    57    28    33 1   
    58    29    30 ar  
    59    29    59 1   
    60    30    31 ar  
    61    30    60 1   
    62    31    32 ar  
    63    31    34 1   
    64    32    61 1   
@<TRIPOS>SUBSTRUCTURE
     1 176         1 TEMP              0 ****  ****    0 ROOT
