@<TRIPOS>MOLECULE
177
   68    70     1     0     0
SMALL
abcg2


@<TRIPOS>ATOM
      1 N0          16.3420   -16.9910    23.0690 n8         1 177      -0.969200
      2 CA0         17.4880   -16.0950    22.9740 c3         1 177       0.102500
      3 CB0         18.1460   -15.8960    24.3500 c6         1 177      -0.059700
      4 CG1         19.2650   -14.8530    24.2910 c6         1 177      -0.073400
      5 CD1         19.9540   -14.6670    25.6390 c6         1 177      -0.072900
      6 CE0         20.4940   -15.9850    26.1770 c6         1 177      -0.075400
      7 CD2         19.3870   -17.0280    26.2500 c6         1 177      -0.072900
      8 CG2         18.6950   -17.2140    24.9030 c6         1 177      -0.073400
      9 C0          16.9770   -14.7490    22.4660 c          1 177       0.607100
     10 O0          16.0610   -14.1700    23.0380 o          1 177      -0.582100
     11 N           17.5630   -14.2010    21.3860 n          1 177      -0.410800
     12 CA          17.1070   -12.9060    20.9150 c5         1 177       0.029700
     13 C           15.6320   -12.9280    20.5390 c          1 177       0.620100
     14 O           15.1350   -13.8910    19.9700 o          1 177      -0.623100
     15 CB          17.9770   -12.6350    19.6790 c5         1 177      -0.086400
     16 CG          19.2400   -13.4390    19.9550 c5         1 177      -0.094400
     17 CD          18.7060   -14.6980    20.6220 c5         1 177       0.110000
     18 N1          14.9790   -11.7890    20.7990 ns         1 177      -0.489900
     19 C1          13.6000   -11.5230    20.4510 c3         1 177       0.161300
     20 C2          12.7830   -11.1900    21.6710 ca         1 177      -0.150300
     21 C3          12.3930   -12.1850    22.5780 ca         1 177       0.183100
     22 C4          11.6870   -11.8420    23.7260 ca         1 177      -0.194000
     23 CE          11.3540   -10.5160    23.9750 ca         1 177      -0.052000
     24 CDB         11.7280    -9.5400    23.0740 ca         1 177       0.074000
     25 CGB         12.4410    -9.8730    21.9310 ca         1 177      -0.062000
     26 CL          11.3150    -7.8820    23.3710 cl         1 177      -0.204000
     27 OL          12.7340   -13.4470    22.2570 os         1 177      -0.337100
     28 CF          12.3210   -14.5030    23.0920 c3         1 177       0.071600
     29 CH          12.6200   -15.8550    22.4690 c          1 177       0.615100
     30 OH          12.2130   -16.8540    23.0480 o          1 177      -0.624100
     31 N2          13.3090   -15.8690    21.3290 ns         1 177      -0.483900
     32 CM          13.6250   -17.0920    20.6210 c3         1 177       0.104000
     33 CN          12.5340   -17.5190    19.6510 c3         1 177      -0.111100
     34 H01         15.9740   -17.1590    22.1400 hn         1 177       0.398500
     35 H02         16.6590   -17.8980    23.3880 hn         1 177       0.398500
     36 HA0         18.2580   -16.4890    22.2990 h1         1 177       0.017700
     37 HG11        20.0110   -15.1640    23.5490 hc         1 177       0.036450
     38 HD11        20.7590   -13.9340    25.5420 hc         1 177       0.041450
     39 HE01        21.2910   -16.3470    25.5180 hc         1 177       0.038200
     40 HD21        18.6450   -16.7180    26.9940 hc         1 177       0.041450
     41 HG21        17.8970   -17.9510    25.0220 hc         1 177       0.036450
     42 HB0         17.3710   -15.5320    25.0350 hc         1 177       0.084700
     43 HG12        18.8780   -13.8870    23.9540 hc         1 177       0.036450
     44 HG22        19.4060   -17.6350    24.1820 hc         1 177       0.036450
     45 HD12        19.2390   -14.2490    26.3550 hc         1 177       0.041450
     46 HD22        19.7860   -17.9860    26.5920 hc         1 177       0.041450
     47 HE02        20.9450   -15.8400    27.1610 hc         1 177       0.038200
     48 HA          17.2910   -12.1450    21.6810 h1         1 177       0.064700
     49 HB1         17.4870   -13.0100    18.7790 hc         1 177       0.062700
     50 HB2         18.1590   -11.5700    19.5420 hc         1 177       0.062700
     51 HG1         19.8950   -12.9020    20.6450 hc         1 177       0.056700
     52 HG2         19.8090   -13.6610    19.0530 hc         1 177       0.056700
     53 HD1         19.4510   -15.1620    21.2630 h1         1 177       0.050700
     54 HD2         18.3870   -15.4350    19.8800 h1         1 177       0.050700
     55 H           15.4720   -11.0540    21.2820 hn         1 177       0.314500
     56 HA'1        13.5590   -10.6820    19.7560 h1         1 177       0.064200
     57 HA'2        13.2040   -12.3910    19.9270 h1         1 177       0.064200
     58 HD          11.3850   -12.5890    24.4470 ha         1 177       0.130000
     59 HE          10.8040   -10.2620    24.8710 ha         1 177       0.130000
     60 HG          12.7360    -9.1010    21.2300 ha         1 177       0.126000
     61 HF1         12.8230   -14.4570    24.0650 h1         1 177       0.067200
     62 HF2         11.2420   -14.4670    23.2740 h1         1 177       0.067200
     63 HN2         13.6470   -15.0030    20.9280 hn         1 177       0.357500
     64 HM1         14.5590   -16.9220    20.0850 h1         1 177       0.047200
     65 HM2         13.8130   -17.8860    21.3440 h1         1 177       0.047200
     66 HN1         12.8260   -18.4350    19.1360 hc         1 177       0.039033
     67 HN2A        11.5970   -17.7120    20.1720 hc         1 177       0.039033
     68 HN3         12.3550   -16.7520    18.8970 hc         1 177       0.039033
@<TRIPOS>BOND
     1     1     2 1   
     2     1    34 1   
     3     1    35 1   
     4     2     3 1   
     5     2     9 1   
     6     2    36 1   
     7     3     4 1   
     8     3     8 1   
     9     3    42 1   
    10     4     5 1   
    11     4    37 1   
    12     4    43 1   
    13     5     6 1   
    14     5    38 1   
    15     5    45 1   
    16     6     7 1   
    17     6    39 1   
    18     6    47 1   
    19     7     8 1   
    20     7    40 1   
    21     7    46 1   
    22     8    41 1   
    23     8    44 1   
    24     9    10 2   
    25     9    11 1   
    26    11    12 1   
    27    11    17 1   
    28    12    13 1   
    29    12    15 1   
    30    12    48 1   
    31    13    14 2   
    32    13    18 1   
    33    15    16 1   
    34    15    49 1   
    35    15    50 1   
    36    16    17 1   
    37    16    51 1   
    38    16    52 1   
    39    17    53 1   
    40    17    54 1   
    41    18    19 1   
    42    18    55 1   
    43    19    20 1   
    44    19    56 1   
    45    19    57 1   
    46    20    21 ar  
    47    20    25 ar  
    48    21    22 ar  
    49    21    27 1   
    50    22    23 ar  
    51    22    58 1   
    52    23    24 ar  
    53    23    59 1   
    54    24    25 ar  
    55    24    26 1   
    56    25    60 1   
    57    27    28 1   
    58    28    29 1   
    59    28    61 1   
    60    28    62 1   
    61    29    30 2   
    62    29    31 1   
    63    31    32 1   
    64    31    63 1   
    65    32    33 1   
    66    32    64 1   
    67    32    65 1   
    68    33    66 1   
    69    33    67 1   
    70    33    68 1   
@<TRIPOS>SUBSTRUCTURE
     1 177         1 TEMP              0 ****  ****    0 ROOT
