@<TRIPOS>MOLECULE
177
   68    70     1     0     0
SMALL
No Charge or Current Charge


@<TRIPOS>ATOM
      1 N0          17.8190   -16.9930    21.6360 n8         1 177      -0.969200
      2 CA0         18.1210   -15.8170    22.5210 c3         1 177       0.102500
      3 CB0         17.9940   -16.1960    24.0450 c6         1 177      -0.059700
      4 CG1         18.5270   -15.0510    24.9670 c6         1 177      -0.073400
      5 CD1         18.3850   -15.4010    26.4680 c6         1 177      -0.072900
      6 CE0         19.1110   -16.7230    26.8050 c6         1 177      -0.075400
      7 CD2         18.5970   -17.8750    25.9110 c6         1 177      -0.072900
      8 CG2         18.7320   -17.5270    24.4070 c6         1 177      -0.073400
      9 C0          17.3140   -14.5120    22.1180 c          1 177       0.607100
     10 O0          16.3730   -14.0950    22.7870 o          1 177      -0.582100
     11 N           17.6670   -13.8430    20.9200 n          1 177      -0.410800
     12 CA          16.8750   -12.7020    20.3760 c5         1 177       0.029700
     13 C           15.3530   -12.9870    20.1570 c          1 177       0.620100
     14 O           14.8140   -14.0750    20.0010 o          1 177      -0.623100
     15 CB          17.5510   -12.5060    18.9870 c5         1 177      -0.086400
     16 CG          19.0330   -12.8060    19.3120 c5         1 177      -0.094400
     17 CD          18.9210   -14.0890    20.1750 c5         1 177       0.110000
     18 N1          14.6560   -11.7990    20.1840 ns         1 177      -0.489900
     19 C1          13.1980   -11.6970    20.1610 c3         1 177       0.161300
     20 C2          12.6880   -11.1330    21.4780 ca         1 177      -0.150300
     21 C3          12.5570   -11.9580    22.6180 ca         1 177       0.183100
     22 C4          12.1130   -11.3960    23.8370 ca         1 177      -0.194000
     23 CE          11.8000   -10.0270    23.9150 ca         1 177      -0.052000
     24 CDB         11.9310    -9.2130    22.7800 ca         1 177       0.074000
     25 CGB         12.3750    -9.7610    21.5670 ca         1 177      -0.062000
     26 Cl          11.5430    -7.5000    22.8790 cl         1 177      -0.204000
     27 OL          12.8670   -13.3020    22.5070 os         1 177      -0.337100
     28 CF          12.9320   -14.1770    23.6600 c3         1 177       0.071600
     29 CH          13.2590   -15.6400    23.2870 c          1 177       0.615100
     30 OH          13.0100   -16.5740    24.0410 o          1 177      -0.624100
     31 N2          13.8510   -15.8400    22.0590 ns         1 177      -0.483900
     32 CM          14.2540   -17.1360    21.5170 c3         1 177       0.104000
     33 CN          13.0600   -17.9310    20.9590 c3         1 177      -0.111100
     34 H01         18.0710   -16.7700    20.6670 hn         1 177       0.398500
     35 H02         18.4430   -17.7690    21.8820 hn         1 177       0.398500
     36 HA0         19.1830   -15.5920    22.3640 h1         1 177       0.017700
     37 HG11        19.5830   -14.8540    24.7370 hc         1 177       0.036450
     38 HD11        18.7940   -14.5860    27.0810 hc         1 177       0.041450
     39 HE01        20.1940   -16.5990    26.6650 hc         1 177       0.038200
     40 HD21        17.5450   -18.0860    26.1480 hc         1 177       0.041450
     41 HG21        18.3280   -18.3670    23.8270 hc         1 177       0.036450
     42 HB0         16.9210   -16.3350    24.2410 hc         1 177       0.084700
     43 HG12        17.9940   -14.1110    24.7780 hc         1 177       0.036450
     44 HG22        19.7960   -17.4470    24.1430 hc         1 177       0.036450
     45 HD12        17.3210   -15.4840    26.7310 hc         1 177       0.041450
     46 HD22        19.1570   -18.7940    26.1320 hc         1 177       0.041450
     47 HE02        18.9590   -16.9750    27.8630 hc         1 177       0.038200
     48 HA          16.9970   -11.8180    21.0170 h1         1 177       0.064700
     49 HB1         17.1630   -13.2160    18.2460 hc         1 177       0.062700
     50 HB2         17.4000   -11.4980    18.5840 hc         1 177       0.062700
     51 HG1         19.4850   -11.9870    19.8840 hc         1 177       0.056700
     52 HG2         19.6450   -12.9570    18.4160 hc         1 177       0.056700
     53 HD1         19.7930   -14.2030    20.8320 h1         1 177       0.050700
     54 HD2         18.8300   -14.9860    19.5480 h1         1 177       0.050700
     55 H           15.1930   -10.9520    20.3210 hn         1 177       0.314500
     56 HA'1        12.9060   -11.0390    19.3310 h1         1 177       0.064200
     57 HA'2        12.7460   -12.6800    19.9740 h1         1 177       0.064200
     58 HD          12.0010   -12.0000    24.7320 ha         1 177       0.130000
     59 HE          11.4580    -9.5970    24.8530 ha         1 177       0.130000
     60 HG          12.4800    -9.1170    20.6970 ha         1 177       0.126000
     61 HF1         13.7120   -13.8360    24.3520 h1         1 177       0.067200
     62 HF2         11.9710   -14.1910    24.1890 h1         1 177       0.067200
     63 HN2         14.0500   -15.0060    21.5090 hn         1 177       0.357500
     64 HM1         14.9810   -16.9630    20.7140 h1         1 177       0.047200
     65 HM2         14.7520   -17.7170    22.3050 h1         1 177       0.047200
     66 HN1         13.4030   -18.8850    20.5410 hc         1 177       0.039033
     67 HN2A        12.3290   -18.1450    21.7470 hc         1 177       0.039033
     68 HN3         12.5600   -17.3680    20.1630 hc         1 177       0.039033
@<TRIPOS>BOND
     1     1     2 1   
     2     1    34 1   
     3     1    35 1   
     4     2     3 1   
     5     2     9 1   
     6     2    36 1   
     7     3     4 1   
     8     3     8 1   
     9     3    42 1   
    10     4     5 1   
    11     4    37 1   
    12     4    43 1   
    13     5     6 1   
    14     5    38 1   
    15     5    45 1   
    16     6     7 1   
    17     6    39 1   
    18     6    47 1   
    19     7     8 1   
    20     7    40 1   
    21     7    46 1   
    22     8    41 1   
    23     8    44 1   
    24     9    10 2   
    25     9    11 1   
    26    11    12 1   
    27    11    17 1   
    28    12    13 1   
    29    12    15 1   
    30    12    48 1   
    31    13    14 2   
    32    13    18 1   
    33    15    16 1   
    34    15    49 1   
    35    15    50 1   
    36    16    17 1   
    37    16    51 1   
    38    16    52 1   
    39    17    53 1   
    40    17    54 1   
    41    18    19 1   
    42    18    55 1   
    43    19    20 1   
    44    19    56 1   
    45    19    57 1   
    46    20    21 ar  
    47    20    25 ar  
    48    21    22 ar  
    49    21    27 1   
    50    22    23 ar  
    51    22    58 1   
    52    23    24 ar  
    53    23    59 1   
    54    24    25 ar  
    55    24    26 1   
    56    25    60 1   
    57    27    28 1   
    58    28    29 1   
    59    28    61 1   
    60    28    62 1   
    61    29    30 2   
    62    29    31 1   
    63    31    32 1   
    64    31    63 1   
    65    32    33 1   
    66    32    64 1   
    67    32    65 1   
    68    33    66 1   
    69    33    67 1   
    70    33    68 1   
@<TRIPOS>SUBSTRUCTURE
     1 177         1 TEMP              0 ****  ****    0 ROOT
