@<TRIPOS>MOLECULE
178
   43    44     1     0     0
SMALL
No Charge or Current Charge


@<TRIPOS>ATOM
      1 O           -2.3460     1.0950     3.6250 oh         1 178      -0.536100
      2 C1          -1.2350     0.9890     2.8380 ca         1 178       0.151100
      3 C2          -0.2810    -0.0380     3.0510 ca         1 178      -0.135300
      4 C2A         -0.4410    -1.0850     4.1670 c3         1 178      -0.009400
      5 C2B         -0.5900    -2.5090     3.5840 c3         1 178      -0.087350
      6 C2G          0.7170    -1.0070     5.1870 c3         1 178      -0.087350
      7 C3           0.8490    -0.0990     2.2040 ca         1 178      -0.049000
      8 C4           1.0240     0.8340     1.1680 ca         1 178      -0.156000
      9 C5           0.0730     1.8480     0.9690 ca         1 178      -0.040000
     10 C6          -1.0530     1.9220     1.8030 ca         1 178      -0.180500
     11 S            2.4550     0.7140     0.0990 ss         1 178       0.039000
     12 C7           0.3780     0.7280    -4.0100 ca         1 178       0.151100
     13 C8          -0.1650    -0.0610    -2.9640 ca         1 178      -0.135300
     14 C2X         -1.4370    -0.9110    -3.1360 c3         1 178      -0.009400
     15 C2Y         -1.1320    -2.4170    -2.9760 c3         1 178      -0.087350
     16 C2Z         -2.5540    -0.4530    -2.1690 c3         1 178      -0.087350
     17 C9           0.4910    -0.0620    -1.7130 ca         1 178      -0.049000
     18 C10          1.6470     0.7120    -1.4990 ca         1 178      -0.156000
     19 C11          2.1730     1.4850    -2.5450 ca         1 178      -0.040000
     20 C12          1.5370     1.4900    -3.7960 ca         1 178      -0.180500
     21 HO          -2.8710     1.8640     3.3170 ho         1 178       0.466500
     22 H2A         -1.3580    -0.8940     4.7360 hc         1 178       0.050700
     23 H2B1        -0.7840    -3.2340     4.3830 hc         1 178       0.036450
     24 H2B2        -1.4290    -2.5480     2.8790 hc         1 178       0.036450
     25 H2B3         0.3190    -2.8200     3.0550 hc         1 178       0.036450
     26 H2G1         1.6770    -1.2630     4.7240 hc         1 178       0.036450
     27 H2G2         0.7940     0.0060     5.6010 hc         1 178       0.036450
     28 H2G3         0.5450    -1.7010     6.0190 hc         1 178       0.036450
     29 H3           1.5930    -0.8790     2.3430 ha         1 178       0.126500
     30 H5           0.2050     2.5730     0.1680 ha         1 178       0.126000
     31 H6          -1.7830     2.7100     1.6370 ha         1 178       0.122500
     32 H1          -0.9830     0.1910    -5.2420 ho         1 178       0.466500
     33 H2X         -1.8460    -0.7900    -4.1450 hc         1 178       0.050700
     34 H2Y1        -2.0290    -3.0160    -3.1760 hc         1 178       0.036450
     35 H2Y2        -0.3520    -2.7280    -3.6810 hc         1 178       0.036450
     36 H2Y3        -0.7890    -2.6490    -1.9610 hc         1 178       0.036450
     37 H2Z1        -2.2700    -0.6160    -1.1220 hc         1 178       0.036450
     38 H2Z2        -2.7640     0.6150    -2.3040 hc         1 178       0.036450
     39 H2Z3        -3.4800    -1.0080    -2.3590 hc         1 178       0.036450
     40 H4           0.1000    -0.6660    -0.8980 ha         1 178       0.126500
     41 H7           3.0690     2.0820    -2.3880 ha         1 178       0.126000
     42 H8           1.9450     2.0910    -4.6040 ha         1 178       0.122500
     43 O1          -0.1980     0.7750    -5.2470 oh         1 178      -0.536100
@<TRIPOS>BOND
     1     1     2 1   
     2     1    21 1   
     3     2     3 ar  
     4     2    10 ar  
     5     3     4 1   
     6     3     7 ar  
     7     4     5 1   
     8     4     6 1   
     9     4    22 1   
    10     5    23 1   
    11     5    24 1   
    12     5    25 1   
    13     6    26 1   
    14     6    27 1   
    15     6    28 1   
    16     7     8 ar  
    17     7    29 1   
    18     8     9 ar  
    19     8    11 1   
    20     9    10 ar  
    21     9    30 1   
    22    10    31 1   
    23    11    18 1   
    24    12    13 ar  
    25    12    20 ar  
    26    12    43 1   
    27    13    14 1   
    28    13    17 ar  
    29    14    15 1   
    30    14    16 1   
    31    14    33 1   
    32    15    34 1   
    33    15    35 1   
    34    15    36 1   
    35    16    37 1   
    36    16    38 1   
    37    16    39 1   
    38    17    18 ar  
    39    17    40 1   
    40    18    19 ar  
    41    19    20 ar  
    42    19    41 1   
    43    20    42 1   
    44    32    43 1   
@<TRIPOS>SUBSTRUCTURE
     1 178         1 TEMP              0 ****  ****    0 ROOT
