@<TRIPOS>MOLECULE
178
   43    44     1     0     0
SMALL
bcc


@<TRIPOS>ATOM
      1 O           -2.2670     1.0950     3.8790 oh         1 178      -0.497100
      2 C1          -1.2430     1.2960     3.0280 ca         1 178       0.151100
      3 C2          -0.3040     0.2630     2.8810 ca         1 178      -0.135300
      4 C2A         -0.4840    -1.0520     3.6080 c3         1 178      -0.009400
      5 C2B         -1.4340    -1.9510     2.8130 c3         1 178      -0.087350
      6 C2G          0.8290    -1.7810     3.8790 c3         1 178      -0.087350
      7 C3           0.7430     0.4710     1.9940 ca         1 178      -0.067000
      8 C4           0.8640     1.6440     1.2540 ca         1 178      -0.029100
      9 C5          -0.0700     2.6570     1.4220 ca         1 178      -0.058000
     10 C6          -1.1160     2.4840     2.3120 ca         1 178      -0.198500
     11 S            2.1950     1.8370     0.1080 ss         1 178      -0.214800
     12 C7           0.6000     0.1120    -3.8050 ca         1 178       0.151100
     13 C8          -0.0890    -0.1820    -2.6220 ca         1 178      -0.135300
     14 C2X         -1.2730    -1.1270    -2.6190 c3         1 178      -0.009400
     15 C2Y         -0.7850    -2.5790    -2.5630 c3         1 178      -0.087350
     16 C2Z         -2.2730    -0.8580    -1.4980 c3         1 178      -0.087350
     17 C9           0.3940     0.3580    -1.4330 ca         1 178      -0.067000
     18 C10          1.5160     1.1740    -1.3950 ca         1 178      -0.029100
     19 C11          2.1800     1.4650    -2.5830 ca         1 178      -0.058000
     20 C12          1.7220     0.9350    -3.7760 ca         1 178      -0.198500
     21 HO          -2.8310     1.8750     3.9170 ho         1 178       0.427500
     22 H2A         -0.9450    -0.8470     4.5770 hc         1 178       0.050700
     23 H2B1        -1.6320    -2.8810     3.3490 hc         1 178       0.036450
     24 H2B2        -2.3910    -1.4650     2.6230 hc         1 178       0.036450
     25 H2B3        -0.9930    -2.2100     1.8470 hc         1 178       0.036450
     26 H2G1         1.2980    -2.1370     2.9600 hc         1 178       0.036450
     27 H2G2         1.5480    -1.1460     4.4000 hc         1 178       0.036450
     28 H2G3         0.6440    -2.6560     4.5020 hc         1 178       0.036450
     29 H3           1.4870    -0.3040     1.8570 ha         1 178       0.144500
     30 H5           0.0130     3.5740     0.8560 ha         1 178       0.144000
     31 H6          -1.8450     3.2750     2.4470 ha         1 178       0.140500
     32 H1          -0.5960    -0.8480    -4.9690 ho         1 178       0.427500
     33 H2X         -1.8380    -0.9980    -3.5500 hc         1 178       0.050700
     34 H2Y1        -1.6250    -3.2710    -2.6350 hc         1 178       0.036450
     35 H2Y2        -0.0900    -2.8110    -3.3710 hc         1 178       0.036450
     36 H2Y3        -0.2720    -2.7700    -1.6190 hc         1 178       0.036450
     37 H2Z1        -1.8620    -1.0900    -0.5140 hc         1 178       0.036450
     38 H2Z2        -2.6050     0.1800    -1.4910 hc         1 178       0.036450
     39 H2Z3        -3.1510    -1.4900    -1.6320 hc         1 178       0.036450
     40 H4          -0.1230     0.1320    -0.5110 ha         1 178       0.144500
     41 H7           3.0510     2.1090    -2.5870 ha         1 178       0.144000
     42 H8           2.2370     1.1620    -4.7010 ha         1 178       0.140500
     43 O1           0.2400    -0.3730    -5.0160 oh         1 178      -0.497100
@<TRIPOS>BOND
     1     1     2 1   
     2     1    21 1   
     3     2     3 ar  
     4     2    10 ar  
     5     3     4 1   
     6     3     7 ar  
     7     4     5 1   
     8     4     6 1   
     9     4    22 1   
    10     5    23 1   
    11     5    24 1   
    12     5    25 1   
    13     6    26 1   
    14     6    27 1   
    15     6    28 1   
    16     7     8 ar  
    17     7    29 1   
    18     8     9 ar  
    19     8    11 1   
    20     9    10 ar  
    21     9    30 1   
    22    10    31 1   
    23    11    18 1   
    24    12    13 ar  
    25    12    20 ar  
    26    12    43 1   
    27    13    14 1   
    28    13    17 ar  
    29    14    15 1   
    30    14    16 1   
    31    14    33 1   
    32    15    34 1   
    33    15    35 1   
    34    15    36 1   
    35    16    37 1   
    36    16    38 1   
    37    16    39 1   
    38    17    18 ar  
    39    17    40 1   
    40    18    19 ar  
    41    19    20 ar  
    42    19    41 1   
    43    20    42 1   
    44    32    43 1   
@<TRIPOS>SUBSTRUCTURE
     1 178         1 TEMP              0 ****  ****    0 ROOT
