@<TRIPOS>MOLECULE
179
   47    49     1     0     0
SMALL
bcc


@<TRIPOS>ATOM
      1 C18         -4.2270    -0.2170    -0.8720 ca         1 179      -0.173000
      2 C17         -5.6090    -0.2360    -0.6000 ca         1 179      -0.010000
      3 C16         -6.5640    -0.5300    -1.6030 ca         1 179      -0.123000
      4 C15         -7.9000    -0.5410    -1.3080 ca         1 179      -0.118000
      5 C14         -8.3480    -0.2590     0.0010 ca         1 179      -0.131000
      6 C13         -7.4470     0.0280     0.9900 ca         1 179      -0.108000
      7 C12         -6.0600     0.0450     0.7150 ca         1 179      -0.055000
      8 C11         -5.0960     0.3350     1.7060 ca         1 179      -0.094000
      9 C10         -3.7580     0.3510     1.4280 ca         1 179      -0.140000
     10 C9          -3.3110     0.0710     0.1130 ca         1 179       0.070600
     11 N2          -1.9620     0.0750    -0.2550 ns         1 179      -0.442100
     12 C8          -0.8710     0.2770     0.4950 c          1 179       0.594100
     13 O8          -0.8240     0.5020     1.6900 o          1 179      -0.586100
     14 C7           0.4170     0.1920    -0.3450 c          1 179       0.599100
     15 O7           0.3780    -0.0560    -1.5360 o          1 179      -0.581100
     16 N1           1.5190     0.4300     0.3740 ns         1 179      -0.541900
     17 C1           2.8420     0.3790    -0.1620 c6         1 179       0.279500
     18 O5           3.4000    -0.8670     0.1710 os         1 179      -0.408600
     19 C5           4.6780    -1.0770    -0.3980 c6         1 179       0.155100
     20 C6           5.1090    -2.4850    -0.0470 c3         1 179       0.149400
     21 O6           4.2050    -3.3940    -0.6260 oh         1 179      -0.584800
     22 C4           5.6600    -0.0320     0.1350 c6         1 179       0.120100
     23 O4           6.8950    -0.2310    -0.5060 oh         1 179      -0.592800
     24 C3           5.1170     1.3660    -0.1360 c6         1 179       0.115100
     25 O3           6.0030     2.2860     0.4510 oh         1 179      -0.602800
     26 C2           3.7020     1.5100     0.4080 c6         1 179       0.075100
     27 O2           3.2170     2.7680     0.0140 oh         1 179      -0.593800
     28 H18         -3.8900    -0.4360    -1.8790 ha         1 179       0.135000
     29 H16         -6.2230    -0.7480    -2.6080 ha         1 179       0.132000
     30 H15         -8.6220    -0.7660    -2.0820 ha         1 179       0.131000
     31 H14         -9.4080    -0.2700     0.2170 ha         1 179       0.132000
     32 H13         -7.7870     0.2470     1.9950 ha         1 179       0.132000
     33 H11         -5.4290     0.5530     2.7130 ha         1 179       0.135000
     34 H10         -3.0550     0.5770     2.2130 ha         1 179       0.163000
     35 HN2         -1.7750    -0.1030    -1.2340 hn         1 179       0.349500
     36 HN1          1.4030     0.5700     1.3700 hn         1 179       0.344500
     37 H1           2.7760     0.4950    -1.2510 h2         1 179       0.085700
     38 H5           4.6210    -0.9770    -1.4950 h1         1 179       0.067700
     39 H6           6.1290    -2.6360    -0.4150 h1         1 179       0.036200
     40 H6A          5.1440    -2.5810     1.0470 h1         1 179       0.036200
     41 HO6          4.5260    -4.2840    -0.4530 ho         1 179       0.406000
     42 H4           5.7520    -0.1680     1.2240 h1         1 179       0.053700
     43 HO4          7.5160     0.4240    -0.1710 ho         1 179       0.427000
     44 H3           5.0750     1.5030    -1.2290 h1         1 179       0.058700
     45 HO3          5.7670     3.1710     0.1550 ho         1 179       0.428000
     46 H2           3.7290     1.4120     1.5030 h1         1 179       0.056700
     47 HO2          2.4770     3.0120     0.5780 ho         1 179       0.419000
@<TRIPOS>BOND
     1     1     2 ar  
     2     1    10 ar  
     3     1    28 1   
     4     2     3 ar  
     5     2     7 ar  
     6     3     4 ar  
     7     3    29 1   
     8     4     5 ar  
     9     4    30 1   
    10     5     6 ar  
    11     5    31 1   
    12     6     7 ar  
    13     6    32 1   
    14     7     8 ar  
    15     8     9 ar  
    16     8    33 1   
    17     9    10 ar  
    18     9    34 1   
    19    10    11 1   
    20    11    12 1   
    21    11    35 1   
    22    12    13 2   
    23    12    14 1   
    24    14    15 2   
    25    14    16 1   
    26    16    17 1   
    27    16    36 1   
    28    17    18 1   
    29    17    26 1   
    30    17    37 1   
    31    18    19 1   
    32    19    20 1   
    33    19    22 1   
    34    19    38 1   
    35    20    21 1   
    36    20    39 1   
    37    20    40 1   
    38    21    41 1   
    39    22    23 1   
    40    22    24 1   
    41    22    42 1   
    42    23    43 1   
    43    24    25 1   
    44    24    26 1   
    45    24    44 1   
    46    25    45 1   
    47    26    27 1   
    48    26    46 1   
    49    27    47 1   
@<TRIPOS>SUBSTRUCTURE
     1 179         1 TEMP              0 ****  ****    0 ROOT
