@<TRIPOS>MOLECULE
179
   47    49     1     0     0
SMALL
No Charge or Current Charge


@<TRIPOS>ATOM
      1 C18         -4.2930    -0.3070    -0.8380 ca         1 179      -0.155000
      2 C17         -5.6680    -0.3980    -0.5560 ca         1 179      -0.010000
      3 C16         -6.5660    -0.8640    -1.5350 ca         1 179      -0.105000
      4 C15         -7.9390    -0.9530    -1.2480 ca         1 179      -0.100000
      5 C14         -8.4190    -0.5770     0.0190 ca         1 179      -0.113000
      6 C13         -7.5260    -0.1120     1.0000 ca         1 179      -0.090000
      7 C12         -6.1500    -0.0210     0.7160 ca         1 179      -0.055000
      8 C11         -5.2510     0.4440     1.6910 ca         1 179      -0.076000
      9 C10         -3.8770     0.5330     1.4040 ca         1 179      -0.122000
     10 C9          -3.3860     0.1580     0.1330 ca         1 179      -0.022000
     11 N2          -2.0100     0.2220    -0.2280 ns         1 179      -0.116000
     12 C8          -0.8740     0.6260     0.4680 c          1 179       0.527100
     13 O8          -0.8690     1.0380     1.6300 o          1 179      -0.586100
     14 C7           0.4640     0.5050    -0.4010 c          1 179       0.532100
     15 O7           0.4750     0.1200    -1.5690 o          1 179      -0.581100
     16 N1           1.6200     0.8830     0.2580 ns         1 179      -0.474900
     17 C1           2.9700     0.7060    -0.2610 c6         1 179       0.302700
     18 O5           3.3140    -0.6690    -0.0030 os         1 179      -0.455000
     19 C5           4.6170    -1.0700    -0.5090 c6         1 179       0.178300
     20 C6           4.7960    -2.6040    -0.2580 c3         1 179       0.172600
     21 O6           3.7490    -3.4080    -0.8410 oh         1 179      -0.707000
     22 C4           5.7320    -0.2210     0.1800 c6         1 179       0.143300
     23 O4           7.0460    -0.5310    -0.3210 oh         1 179      -0.715000
     24 C3           5.4310     1.2900    -0.0390 c6         1 179       0.138300
     25 O3           6.4040     2.1080     0.6340 oh         1 179      -0.665000
     26 C2           4.0010     1.6400     0.4610 c6         1 179       0.098300
     27 O2           3.7370     3.0450     0.2260 oh         1 179      -0.716000
     28 H18         -3.9280    -0.5990    -1.8210 ha         1 179       0.117000
     29 H16         -6.2020    -1.1560    -2.5170 ha         1 179       0.114000
     30 H15         -8.6310    -1.3130    -2.0070 ha         1 179       0.113000
     31 H14         -9.4820    -0.6470     0.2400 ha         1 179       0.114000
     32 H13         -7.9050     0.1770     1.9780 ha         1 179       0.114000
     33 H11         -5.6140     0.7370     2.6740 ha         1 179       0.117000
     34 H10         -3.2150     0.8970     2.1830 ha         1 179       0.145000
     35 HN2         -1.8200    -0.0860    -1.1740 hn         1 179       0.183000
     36 HN1          1.5090     1.1450     1.2320 hn         1 179       0.344500
     37 H1           2.9780     0.9020    -1.3450 h2         1 179       0.085700
     38 H5           4.6450    -0.8970    -1.5950 h1         1 179       0.067700
     39 H6           5.7700    -2.9080    -0.6660 h1         1 179       0.036200
     40 H6A          4.8360    -2.7680     0.8280 h1         1 179       0.036200
     41 HO6          3.9200    -4.3410    -0.5730 ho         1 179       0.505000
     42 H4           5.6920    -0.4250     1.2610 h1         1 179       0.053700
     43 HO4          7.6050     0.2410    -0.0580 ho         1 179       0.526000
     44 H3           5.4670     1.4920    -1.1210 h1         1 179       0.058700
     45 HO3          5.9720     2.9920     0.7090 ho         1 179       0.467000
     46 H2           3.9520     1.4270     1.5400 h1         1 179       0.056700
     47 HO2          2.8130     3.2320     0.5170 ho         1 179       0.518000
@<TRIPOS>BOND
     1     1     2 ar  
     2     1    10 ar  
     3     1    28 1   
     4     2     3 ar  
     5     2     7 ar  
     6     3     4 ar  
     7     3    29 1   
     8     4     5 ar  
     9     4    30 1   
    10     5     6 ar  
    11     5    31 1   
    12     6     7 ar  
    13     6    32 1   
    14     7     8 ar  
    15     8     9 ar  
    16     8    33 1   
    17     9    10 ar  
    18     9    34 1   
    19    10    11 1   
    20    11    12 1   
    21    11    35 1   
    22    12    13 2   
    23    12    14 1   
    24    14    15 2   
    25    14    16 1   
    26    16    17 1   
    27    16    36 1   
    28    17    18 1   
    29    17    26 1   
    30    17    37 1   
    31    18    19 1   
    32    19    20 1   
    33    19    22 1   
    34    19    38 1   
    35    20    21 1   
    36    20    39 1   
    37    20    40 1   
    38    21    41 1   
    39    22    23 1   
    40    22    24 1   
    41    22    42 1   
    42    23    43 1   
    43    24    25 1   
    44    24    26 1   
    45    24    44 1   
    46    25    45 1   
    47    26    27 1   
    48    26    46 1   
    49    27    47 1   
@<TRIPOS>SUBSTRUCTURE
     1 179         1 TEMP              0 ****  ****    0 ROOT
