@<TRIPOS>MOLECULE
17A
   65    67     1     0     0
SMALL
abcg2


@<TRIPOS>ATOM
      1 C41          1.8240     4.0060     1.1720 ca         1 17A      -0.090000
      2 C42          1.6330     5.3800     1.1630 ca         1 17A      -0.126000
      3 C43          1.5740     6.0700    -0.0400 ca         1 17A      -0.132000
      4 C44          1.7020     5.3730    -1.2350 ca         1 17A      -0.126000
      5 C45          1.8870     3.9990    -1.2260 ca         1 17A      -0.090000
      6 C40          1.9560     3.2950    -0.0230 cp         1 17A      -0.006000
      7 C37          2.1590     1.8320    -0.0120 cp         1 17A      -0.029000
      8 C38          1.5980     1.0400     0.9930 ca         1 17A      -0.120000
      9 C39          1.7740    -0.3330     1.0060 ca         1 17A      -0.016000
     10 C36          2.8970     1.2040    -1.0160 ca         1 17A      -0.120000
     11 C35          3.0680    -0.1700    -1.0240 ca         1 17A      -0.016000
     12 C34          2.5070    -0.9320    -0.0090 ca         1 17A      -0.284500
     13 S32          2.7900    -2.6830     0.0410 sy         1 17A       1.129600
     14 O33          3.4760    -3.0310    -1.1940 o          1 17A      -0.583500
     15 O32          3.4600    -2.9920     1.3010 o          1 17A      -0.583500
     16 N31          1.3330    -3.4280     0.1460 n7         1 17A      -0.836300
     17 C27          0.1370    -3.0360    -0.6150 c3         1 17A      -0.124500
     18 C28         -0.1540    -3.9180    -1.8350 c3         1 17A      -0.028700
     19 C30         -1.3790    -3.3920    -2.5810 c3         1 17A      -0.086100
     20 C29          1.0120    -4.0300    -2.8100 c3         1 17A      -0.086100
     21 P24         -1.2460    -3.1550     0.7030 p5         1 17A       1.364000
     22 O25         -0.4700    -3.0440     2.0120 o          1 17A      -0.791000
     23 O26         -2.0680    -4.4010     0.4560 o          1 17A      -0.791000
     24 C15         -2.3150    -1.6860     0.4620 c3         1 17A      -0.407400
     25 C1          -1.7590    -0.3910     1.0420 c3         1 17A      -0.131400
     26 C2          -1.7320    -0.3830     2.5920 c          1 17A       0.748000
     27 O14         -2.6820    -0.9350     3.1750 o          1 17A      -0.733500
     28 O13         -0.7970     0.2460     3.1300 o          1 17A      -0.733500
     29 C3          -2.5450     0.8190     0.5970 ca         1 17A       0.002700
     30 C8          -1.8980     1.8820    -0.0220 ca         1 17A      -0.098000
     31 C4          -3.9200     0.9260     0.8260 ca         1 17A      -0.088000
     32 C5          -4.6080     2.0670     0.4450 ca         1 17A      -0.137000
     33 C6          -3.9370     3.1270    -0.1570 ca         1 17A      -0.155000
     34 C7          -2.5710     3.0450    -0.3920 ca         1 17A      -0.104300
     35 C9          -1.8220     4.1740    -1.0490 c3         1 17A       0.200100
     36 N10         -1.3690     3.7910    -2.3790 n8         1 17A      -0.983200
     37 H41          1.8950     3.4880     2.1200 ha         1 17A       0.125000
     38 H42          1.5380     5.9130     2.1000 ha         1 17A       0.097000
     39 H43          1.4280     7.1420    -0.0470 ha         1 17A       0.091000
     40 H44          1.6480     5.9000    -2.1790 ha         1 17A       0.097000
     41 H45          1.9580     3.4720    -2.1680 ha         1 17A       0.125000
     42 H38          0.9680     1.4750     1.7560 ha         1 17A       0.126000
     43 H39          1.2850    -0.9160     1.7780 ha         1 17A       0.157000
     44 H36          3.3590     1.7880    -1.8010 ha         1 17A       0.126000
     45 H35          3.6400    -0.6340    -1.8160 ha         1 17A       0.157000
     46 HN31         1.0630    -3.4640     1.1430 hn         1 17A       0.535000
     47 H27          0.2150    -1.9880    -0.9420 h1         1 17A       0.039700
     48 H28         -0.3890    -4.9210    -1.4680 hc         1 17A       0.070700
     49 H301        -1.2270    -2.3620    -2.9150 hc         1 17A       0.022533
     50 H302        -1.5720    -3.9950    -3.4700 hc         1 17A       0.022533
     51 H303        -2.2800    -3.4230    -1.9700 hc         1 17A       0.022533
     52 H291         1.8760    -4.5220    -2.3690 hc         1 17A       0.022533
     53 H292         0.7080    -4.6160    -3.6800 hc         1 17A       0.022533
     54 H293         1.3300    -3.0490    -3.1690 hc         1 17A       0.022533
     55 H151        -2.5060    -1.5760    -0.6090 hc         1 17A       0.047700
     56 H152        -3.2750    -1.9280     0.9240 hc         1 17A       0.047700
     57 H1          -0.7400    -0.2500     0.6790 hc         1 17A       0.026700
     58 H8          -0.8340     1.8070    -0.2180 ha         1 17A       0.116000
     59 H4          -4.4490     0.1190     1.3160 ha         1 17A       0.135000
     60 H5          -5.6740     2.1380     0.6250 ha         1 17A       0.081000
     61 H6          -4.4810     4.0200    -0.4450 ha         1 17A       0.070000
     62 H91         -2.4520     5.0730    -1.0370 h1         1 17A       0.022700
     63 H92         -0.9340     4.4100    -0.4570 h1         1 17A       0.022700
     64 H101        -2.1620     3.7560    -3.0080 hn         1 17A       0.374500
     65 H102        -0.7540     4.5090    -2.7400 hn         1 17A       0.374500
@<TRIPOS>BOND
     1     1     2 ar  
     2     1     6 ar  
     3     1    37 1   
     4     2     3 ar  
     5     2    38 1   
     6     3     4 ar  
     7     3    39 1   
     8     4     5 ar  
     9     4    40 1   
    10     5     6 ar  
    11     5    41 1   
    12     6     7 1   
    13     7     8 ar  
    14     7    10 ar  
    15     8     9 ar  
    16     8    42 1   
    17     9    12 ar  
    18     9    43 1   
    19    10    11 ar  
    20    10    44 1   
    21    11    12 ar  
    22    11    45 1   
    23    12    13 1   
    24    13    14 2   
    25    13    15 2   
    26    13    16 1   
    27    16    17 1   
    28    16    46 1   
    29    17    18 1   
    30    17    21 1   
    31    17    47 1   
    32    18    19 1   
    33    18    20 1   
    34    18    48 1   
    35    19    49 1   
    36    19    50 1   
    37    19    51 1   
    38    20    52 1   
    39    20    53 1   
    40    20    54 1   
    41    21    22 1   
    42    21    23 1   
    43    21    24 1   
    44    24    25 1   
    45    24    55 1   
    46    24    56 1   
    47    25    26 1   
    48    25    29 1   
    49    25    57 1   
    50    26    27 1   
    51    26    28 1   
    52    29    30 ar  
    53    29    31 ar  
    54    30    34 ar  
    55    30    58 1   
    56    31    32 ar  
    57    31    59 1   
    58    32    33 ar  
    59    32    60 1   
    60    33    34 ar  
    61    33    61 1   
    62    34    35 1   
    63    35    36 1   
    64    35    62 1   
    65    35    63 1   
    66    36    64 1   
    67    36    65 1   
@<TRIPOS>SUBSTRUCTURE
     1 17A         1 TEMP              0 ****  ****    0 ROOT
