@<TRIPOS>MOLECULE
17A
   65    67     1     0     0
SMALL
No Charge or Current Charge


@<TRIPOS>ATOM
      1 C41          2.1860     3.8970     0.8460 ca         1 17A      -0.090000
      2 C42          1.9840     5.2760     0.6610 ca         1 17A      -0.126000
      3 C43          1.5700     5.7640    -0.5880 ca         1 17A      -0.132000
      4 C44          1.3540     4.8720    -1.6490 ca         1 17A      -0.126000
      5 C45          1.5520     3.4930    -1.4630 ca         1 17A      -0.090000
      6 C40          1.9770     2.9750    -0.2120 cp         1 17A      -0.006000
      7 C37          2.2150     1.5070    -0.0190 cp         1 17A      -0.029000
      8 C38          1.9750     0.8830     1.2310 ca         1 17A      -0.120000
      9 C39          2.2210    -0.4870     1.4230 ca         1 17A      -0.016000
     10 C36          2.7090     0.6980    -1.0730 ca         1 17A      -0.120000
     11 C35          2.9600    -0.6720    -0.8870 ca         1 17A      -0.016000
     12 C34          2.7120    -1.2720     0.3620 ca         1 17A      -0.284500
     13 S32          3.0810    -3.0210     0.6020 sy         1 17A       1.129600
     14 O33          4.3100    -3.3480    -0.1260 o          1 17A      -0.583500
     15 O32          2.8900    -3.3880     2.0060 o          1 17A      -0.583500
     16 N31          1.8620    -3.8080    -0.2400 n7         1 17A      -0.836300
     17 C27          0.5350    -3.1510    -0.6220 c3         1 17A      -0.124500
     18 C28         -0.0660    -3.9630    -1.8300 c3         1 17A      -0.028700
     19 C30         -1.3290    -3.3120    -2.4520 c3         1 17A      -0.086100
     20 C29          0.9710    -4.2080    -2.9630 c3         1 17A      -0.086100
     21 P24         -0.7560    -2.7820     0.7580 p5         1 17A       1.364000
     22 O25         -0.0910    -2.5210     2.0700 o          1 17A      -0.791000
     23 O26         -1.7340    -3.9130     0.8610 o          1 17A      -0.791000
     24 C15         -1.6380    -1.2550     0.1790 c3         1 17A      -0.407400
     25 C1          -1.8010    -0.0670     1.1890 c3         1 17A      -0.131400
     26 C2          -2.3680    -0.4670     2.5890 c          1 17A       0.748000
     27 O14         -3.4340    -1.0660     2.6480 o          1 17A      -0.733500
     28 O13         -1.7610    -0.0960     3.5850 o          1 17A      -0.733500
     29 C3          -2.6370     1.0670     0.5780 ca         1 17A       0.002700
     30 C8          -2.0620     2.3370     0.3570 ca         1 17A      -0.098000
     31 C4          -3.9870     0.8590     0.2250 ca         1 17A      -0.088000
     32 C5          -4.7530     1.9050    -0.3150 ca         1 17A      -0.137000
     33 C6          -4.1770     3.1670    -0.5180 ca         1 17A      -0.155000
     34 C7          -2.8230     3.3900    -0.1940 ca         1 17A      -0.104300
     35 C9          -2.1940     4.7630    -0.4130 c3         1 17A       0.200100
     36 N10         -2.2910     5.1990    -1.8170 n8         1 17A      -0.983200
     37 H41          2.5280     3.5450     1.8160 ha         1 17A       0.125000
     38 H42          2.1540     5.9650     1.4840 ha         1 17A       0.097000
     39 H43          1.4140     6.8310    -0.7320 ha         1 17A       0.091000
     40 H44          1.0260     5.2470    -2.6160 ha         1 17A       0.097000
     41 H45          1.3640     2.8190    -2.2940 ha         1 17A       0.125000
     42 H38          1.5840     1.4620     2.0630 ha         1 17A       0.126000
     43 H39          2.0300    -0.9320     2.3990 ha         1 17A       0.157000
     44 H36          2.9240     1.1390    -2.0430 ha         1 17A       0.126000
     45 H35          3.3470    -1.2660    -1.7140 ha         1 17A       0.157000
     46 HN31         1.7130    -4.6060     0.3780 hn         1 17A       0.535000
     47 H27          0.7420    -2.1540    -1.0250 h1         1 17A       0.039700
     48 H28         -0.3670    -4.9490    -1.4530 hc         1 17A       0.070700
     49 H301        -1.1250    -2.2800    -2.7620 hc         1 17A       0.022533
     50 H302        -1.6550    -3.8700    -3.3380 hc         1 17A       0.022533
     51 H303        -2.1730    -3.3120    -1.7560 hc         1 17A       0.022533
     52 H291         1.8000    -4.8400    -2.6270 hc         1 17A       0.022533
     53 H292         0.5050    -4.7200    -3.8140 hc         1 17A       0.022533
     54 H293         1.3840    -3.2570    -3.3230 hc         1 17A       0.022533
     55 H151        -1.1160    -0.8930    -0.7120 hc         1 17A       0.047700
     56 H152        -2.6240    -1.6010    -0.1440 hc         1 17A       0.047700
     57 H1          -0.8000     0.3400     1.3720 hc         1 17A       0.026700
     58 H8          -1.0200     2.5090     0.6150 ha         1 17A       0.116000
     59 H4          -4.4490    -0.1130     0.3780 ha         1 17A       0.135000
     60 H5          -5.7960     1.7350    -0.5730 ha         1 17A       0.081000
     61 H6          -4.7810     3.9710    -0.9300 ha         1 17A       0.070000
     62 H91         -2.7070     5.5020     0.2180 h1         1 17A       0.022700
     63 H92         -1.1340     4.7450    -0.1240 h1         1 17A       0.022700
     64 H101        -3.2830     5.2670    -2.0650 hn         1 17A       0.374500
     65 H102        -1.9460     6.1620    -1.8880 hn         1 17A       0.374500
@<TRIPOS>BOND
     1     1     2 ar  
     2     1     6 ar  
     3     1    37 1   
     4     2     3 ar  
     5     2    38 1   
     6     3     4 ar  
     7     3    39 1   
     8     4     5 ar  
     9     4    40 1   
    10     5     6 ar  
    11     5    41 1   
    12     6     7 1   
    13     7     8 ar  
    14     7    10 ar  
    15     8     9 ar  
    16     8    42 1   
    17     9    12 ar  
    18     9    43 1   
    19    10    11 ar  
    20    10    44 1   
    21    11    12 ar  
    22    11    45 1   
    23    12    13 1   
    24    13    14 2   
    25    13    15 2   
    26    13    16 1   
    27    16    17 1   
    28    16    46 1   
    29    17    18 1   
    30    17    21 1   
    31    17    47 1   
    32    18    19 1   
    33    18    20 1   
    34    18    48 1   
    35    19    49 1   
    36    19    50 1   
    37    19    51 1   
    38    20    52 1   
    39    20    53 1   
    40    20    54 1   
    41    21    22 1   
    42    21    23 1   
    43    21    24 1   
    44    24    25 1   
    45    24    55 1   
    46    24    56 1   
    47    25    26 1   
    48    25    29 1   
    49    25    57 1   
    50    26    27 1   
    51    26    28 1   
    52    29    30 ar  
    53    29    31 ar  
    54    30    34 ar  
    55    30    58 1   
    56    31    32 ar  
    57    31    59 1   
    58    32    33 ar  
    59    32    60 1   
    60    33    34 ar  
    61    33    61 1   
    62    34    35 1   
    63    35    36 1   
    64    35    62 1   
    65    35    63 1   
    66    36    64 1   
    67    36    65 1   
@<TRIPOS>SUBSTRUCTURE
     1 17A         1 TEMP              0 ****  ****    0 ROOT
