@<TRIPOS>MOLECULE
17B
   38    38     1     0     0
SMALL
bcc


@<TRIPOS>ATOM
      1 C8          -4.1950     0.0430    -0.4210 c3         1 17B      -0.078400
      2 C2           1.5090     1.7030    -0.2090 c6         1 17B       0.086800
      3 C3           2.8090     0.9400    -0.3990 c6         1 17B       0.117100
      4 C4           2.7740    -0.3710     0.3770 c6         1 17B       0.145100
      5 C5           1.6330    -1.2320    -0.1500 c6         1 17B       0.232500
      6 C6           1.4140    -2.4550     0.7240 c3         1 17B       0.132400
      7 O2           1.4140     2.1090     1.1370 oh         1 17B      -0.575800
      8 O3           3.9300     1.6670     0.0410 oh         1 17B      -0.586800
      9 O4           3.9640    -1.0990     0.2040 oh         1 17B      -0.603800
     10 N5           0.3960    -0.4710    -0.2090 nu         1 17B      -0.870200
     11 O6           0.3720    -3.2170     0.1540 oh         1 17B      -0.611800
     12 N1          -6.4210    -0.5590     0.4170 n8         1 17B      -0.886800
     13 C7          -5.1410     0.0380     0.7700 c3         1 17B       0.150800
     14 C10         -1.9210     0.7200    -1.3160 c3         1 17B       0.119800
     15 C9          -2.8480     0.6760    -0.1010 c3         1 17B      -0.088400
     16 N2          -0.7020     1.4470    -1.0510 n2         1 17B      -0.684900
     17 C1           0.3120     0.8430    -0.5660 c2         1 17B       0.591200
     18 H8C1        -4.0450    -0.9850    -0.7680 hc         1 17B       0.046200
     19 H8C2        -4.6680     0.5820    -1.2480 hc         1 17B       0.046200
     20 H7C1        -4.6440    -0.4590     1.6170 h1         1 17B       0.026200
     21 H7C2        -5.3210     1.0690     1.0850 h1         1 17B       0.026200
     22 H9C1        -2.9950     1.6980     0.2600 hc         1 17B       0.044700
     23 H9C2        -2.3640     0.1280     0.7140 hc         1 17B       0.044700
     24 H2           1.4950     2.5670    -0.8850 h1         1 17B       0.059700
     25 H3           2.8940     0.6970    -1.4690 h1         1 17B       0.047700
     26 HA           0.6130     2.6350     1.2280 ho         1 17B       0.417000
     27 H4           2.5980    -0.1540     1.4410 h1         1 17B       0.073700
     28 HB           4.1700     2.3070    -0.6360 ho         1 17B       0.413000
     29 H5           1.9170    -1.5700    -1.1580 h1         1 17B       0.056700
     30 HC           4.6980    -0.5140     0.4220 ho         1 17B       0.428000
     31 H6C1         2.3450    -3.0280     0.7820 h1         1 17B       0.041700
     32 H6C2         1.1630    -2.1220     1.7390 h1         1 17B       0.041700
     33 H6           0.1020    -3.8860     0.7900 ho         1 17B       0.411000
     34 H1N1        -6.2910    -1.5460     0.2350 hn         1 17B       0.336300
     35 H1N2        -7.0470    -0.5100     1.2110 hn         1 17B       0.336300
     36 H101        -1.7480    -0.3050    -1.6780 h1         1 17B       0.039200
     37 H102        -2.4450     1.2310    -2.1280 h1         1 17B       0.039200
     38 H1N3        -0.4060    -1.0460    -0.4230 hn         1 17B       0.433800
@<TRIPOS>BOND
     1     1    13 1   
     2     1    15 1   
     3     1    18 1   
     4     1    19 1   
     5     2     3 1   
     6     2     7 1   
     7     2    17 1   
     8     2    24 1   
     9     3     4 1   
    10     3     8 1   
    11     3    25 1   
    12     4     5 1   
    13     4     9 1   
    14     4    27 1   
    15     5     6 1   
    16     5    10 1   
    17     5    29 1   
    18     6    11 1   
    19     6    31 1   
    20     6    32 1   
    21     7    26 1   
    22     8    28 1   
    23     9    30 1   
    24    10    17 1   
    25    10    38 1   
    26    11    33 1   
    27    12    13 1   
    28    12    34 1   
    29    12    35 1   
    30    13    20 1   
    31    13    21 1   
    32    14    15 1   
    33    14    16 1   
    34    14    36 1   
    35    14    37 1   
    36    15    22 1   
    37    15    23 1   
    38    16    17 2   
@<TRIPOS>SUBSTRUCTURE
     1 17B         1 TEMP              0 ****  ****    0 ROOT
