@<TRIPOS>MOLECULE
17B
   38    38     1     0     0
SMALL
No Charge or Current Charge


@<TRIPOS>ATOM
      1 C8          -4.2310     0.0310    -0.3800 c3         1 17B      -0.078400
      2 C2           1.6990     1.7320    -0.4970 c6         1 17B       0.110000
      3 C3           2.9900     0.8650    -0.4500 c6         1 17B       0.140300
      4 C4           2.7750    -0.4000     0.4280 c6         1 17B       0.168300
      5 C5           1.6680    -1.2930    -0.2200 c6         1 17B       0.232500
      6 C6           1.2680    -2.4930     0.7050 c3         1 17B       0.155600
      7 O2           1.5780     2.4910     0.7430 oh         1 17B      -0.698000
      8 O3           4.0730     1.6600     0.0650 oh         1 17B      -0.649000
      9 O4           4.0280    -1.1030     0.5580 oh         1 17B      -0.726000
     10 N5           0.4730    -0.4910    -0.5760 nu         1 17B      -0.925400
     11 O6           0.1570    -3.2560     0.1840 oh         1 17B      -0.674000
     12 N1          -6.4350    -0.6180     0.5910 n8         1 17B      -0.997200
     13 C7          -5.1530     0.0590     0.8560 c3         1 17B       0.150800
     14 C10         -1.9560     0.7140    -1.3730 c3         1 17B       0.119800
     15 C9          -2.8790     0.7380    -0.1360 c3         1 17B      -0.088400
     16 N2          -0.6920     1.4200    -1.0780 n2         1 17B      -0.684900
     17 C1           0.4360     0.8740    -0.7840 c2         1 17B       0.591200
     18 H8C1        -4.0440    -1.0110    -0.6690 hc         1 17B       0.046200
     19 H8C2        -4.7410     0.5130    -1.2230 hc         1 17B       0.046200
     20 H7C1        -4.6580    -0.4420     1.7000 h1         1 17B       0.026200
     21 H7C2        -5.3580     1.1000     1.1410 h1         1 17B       0.026200
     22 H9C1        -3.0650     1.7800     0.1540 hc         1 17B       0.044700
     23 H9C2        -2.3680     0.2560     0.7070 hc         1 17B       0.044700
     24 H2           1.8080     2.4320    -1.3380 h1         1 17B       0.059700
     25 H3           3.2210     0.5380    -1.4740 h1         1 17B       0.047700
     26 HA           0.6680     2.8770     0.7410 ho         1 17B       0.516000
     27 H4           2.4210    -0.0750     1.4190 h1         1 17B       0.073700
     28 HB           3.6170     2.3420     0.6150 ho         1 17B       0.452000
     29 H5           2.0890    -1.7200    -1.1420 h1         1 17B       0.056700
     30 HC           4.7110    -0.3870     0.5490 ho         1 17B       0.527000
     31 H6C1         2.1470    -3.1400     0.8320 h1         1 17B       0.041700
     32 H6C2         1.0100    -2.0910     1.6940 h1         1 17B       0.041700
     33 H6          -0.0040    -3.9950     0.8130 ho         1 17B       0.450000
     34 H1N1        -6.2550    -1.6120     0.4080 hn         1 17B       0.391500
     35 H1N2        -6.9920    -0.6300     1.4550 hn         1 17B       0.391500
     36 H101        -1.7940    -0.3290    -1.6770 h1         1 17B       0.039200
     37 H102        -2.4700     1.2060    -2.2100 h1         1 17B       0.039200
     38 H1N3        -0.4220    -0.9690    -0.5970 hn         1 17B       0.489000
@<TRIPOS>BOND
     1     1    13 1   
     2     1    15 1   
     3     1    18 1   
     4     1    19 1   
     5     2     3 1   
     6     2     7 1   
     7     2    17 1   
     8     2    24 1   
     9     3     4 1   
    10     3     8 1   
    11     3    25 1   
    12     4     5 1   
    13     4     9 1   
    14     4    27 1   
    15     5     6 1   
    16     5    10 1   
    17     5    29 1   
    18     6    11 1   
    19     6    31 1   
    20     6    32 1   
    21     7    26 1   
    22     8    28 1   
    23     9    30 1   
    24    10    17 1   
    25    10    38 1   
    26    11    33 1   
    27    12    13 1   
    28    12    34 1   
    29    12    35 1   
    30    13    20 1   
    31    13    21 1   
    32    14    15 1   
    33    14    16 1   
    34    14    36 1   
    35    14    37 1   
    36    15    22 1   
    37    15    23 1   
    38    16    17 2   
@<TRIPOS>SUBSTRUCTURE
     1 17B         1 TEMP              0 ****  ****    0 ROOT
