@<TRIPOS>MOLECULE
17C
   28    29     1     0     0
SMALL
No Charge or Current Charge


@<TRIPOS>ATOM
      1 OAA         -3.2760    -1.8790     1.4340 o          1 17C      -0.719000
      2 OAB          3.2910    -1.7600    -1.4270 o          1 17C      -0.719000
      3 OAC         -1.5430    -2.3610     0.2550 o          1 17C      -0.719000
      4 OAD          1.5760    -2.3060    -0.2500 o          1 17C      -0.719000
      5 CAE         -2.6320     2.3440    -1.1830 ca         1 17C      -0.111000
      6 CAF          2.5020     2.4280     1.2050 ca         1 17C      -0.111000
      7 CAG         -3.8000     1.6300    -0.8900 ca         1 17C      -0.213500
      8 CAH          3.6940     1.7560     0.9100 ca         1 17C      -0.213500
      9 CAI         -1.3820     1.7830    -0.8800 ca         1 17C      -0.214500
     10 CAJ          1.2730     1.8250     0.9000 ca         1 17C      -0.214500
     11 CAK         -3.7180     0.3570    -0.3060 ca         1 17C      -0.068500
     12 CAL          3.6560     0.4830     0.3210 ca         1 17C      -0.068500
     13 CAN         -2.4110    -1.5830     0.6220 c          1 17C       0.709600
     14 CAO          2.4160    -1.4970    -0.6140 c          1 17C       0.709600
     15 CAP         -1.2840     0.5120    -0.2790 ca         1 17C       0.364500
     16 CAQ          1.2180     0.5540     0.2950 ca         1 17C       0.364500
     17 CAR         -2.4620    -0.2180    -0.0040 ca         1 17C      -0.189100
     18 CAS          2.4210    -0.1340     0.0160 ca         1 17C      -0.189100
     19 HAE         -2.6930     3.3260    -1.6450 ha         1 17C       0.065000
     20 HAF          2.5290     3.4100     1.6710 ha         1 17C       0.065000
     21 HAG         -4.7720     2.0600    -1.1220 ha         1 17C       0.069000
     22 HAH          4.6510     2.2180     1.1440 ha         1 17C       0.069000
     23 HAI         -0.4840     2.3400    -1.1270 ha         1 17C       0.100000
     24 HAJ          0.3560     2.3500     1.1490 ha         1 17C       0.100000
     25 HAK         -4.6350    -0.1910    -0.0920 ha         1 17C       0.113500
     26 HAL          4.5910    -0.0320     0.1050 ha         1 17C       0.113500
     27 HNAM        -0.0060    -1.0470     0.0050 hn         1 17C       0.596000
     28 NAM         -0.0240    -0.0110     0.0070 nu         1 17C      -0.970000
@<TRIPOS>BOND
     1     1    13 1   
     2     2    14 1   
     3     3    13 1   
     4     4    14 1   
     5     5     7 ar  
     6     5     9 ar  
     7     5    19 1   
     8     6     8 ar  
     9     6    10 ar  
    10     6    20 1   
    11     7    11 ar  
    12     7    21 1   
    13     8    12 ar  
    14     8    22 1   
    15     9    15 ar  
    16     9    23 1   
    17    10    16 ar  
    18    10    24 1   
    19    11    17 ar  
    20    11    25 1   
    21    12    18 ar  
    22    12    26 1   
    23    13    17 1   
    24    14    18 1   
    25    15    17 ar  
    26    15    28 1   
    27    16    18 ar  
    28    16    28 1   
    29    27    28 1   
@<TRIPOS>SUBSTRUCTURE
     1 17C         1 TEMP              0 ****  ****    0 ROOT
