@<TRIPOS>MOLECULE
17C
   28    29     1     0     0
SMALL
abcg2


@<TRIPOS>ATOM
      1 OAA         -3.6260    -1.9510     1.1260 o          1 17C      -0.719000
      2 OAB          3.6300    -1.8030    -1.1620 o          1 17C      -0.719000
      3 OAC         -1.4960    -2.3050     0.6090 o          1 17C      -0.719000
      4 OAD          1.5380    -2.2630    -0.5700 o          1 17C      -0.719000
      5 CAE         -2.5160     2.3360    -1.1310 ca         1 17C      -0.111000
      6 CAF          2.3870     2.4170     1.1530 ca         1 17C      -0.111000
      7 CAG         -3.7100     1.6970    -0.8200 ca         1 17C      -0.213500
      8 CAH          3.6020     1.8170     0.8460 ca         1 17C      -0.213500
      9 CAI         -1.3080     1.7280    -0.8530 ca         1 17C      -0.214500
     10 CAJ          1.2000     1.7700     0.8680 ca         1 17C      -0.214500
     11 CAK         -3.6550     0.4400    -0.2410 ca         1 17C      -0.068500
     12 CAL          3.5920     0.5620     0.2610 ca         1 17C      -0.068500
     13 CAN         -2.5290    -1.6020     0.6510 c          1 17C       0.709600
     14 CAO          2.5340    -1.5110    -0.6470 c          1 17C       0.709600
     15 CAP         -1.2420     0.4610    -0.2470 ca         1 17C       0.364500
     16 CAQ          1.1790     0.5030     0.2590 ca         1 17C       0.364500
     17 CAR         -2.4540    -0.2060     0.0490 ca         1 17C      -0.189100
     18 CAS          2.4130    -0.1220    -0.0370 ca         1 17C      -0.189100
     19 HAE         -2.5220     3.3090    -1.6070 ha         1 17C       0.065000
     20 HAF          2.3590     3.3880     1.6310 ha         1 17C       0.065000
     21 HAG         -4.6620     2.1650    -1.0320 ha         1 17C       0.069000
     22 HAH          4.5370     2.3150     1.0630 ha         1 17C       0.069000
     23 HAI         -0.3920     2.2340    -1.1280 ha         1 17C       0.100000
     24 HAJ          0.2670     2.2450     1.1390 ha         1 17C       0.100000
     25 HAK         -4.5770    -0.0710     0.0040 ha         1 17C       0.113500
     26 HAL          4.5310     0.0840     0.0170 ha         1 17C       0.113500
     27 HNAM        -0.0070    -1.1490     0.0150 hn         1 17C       0.596000
     28 NAM         -0.0210    -0.1320     0.0030 nu         1 17C      -0.970000
@<TRIPOS>BOND
     1     1    13 1   
     2     2    14 1   
     3     3    13 1   
     4     4    14 1   
     5     5     7 ar  
     6     5     9 ar  
     7     5    19 1   
     8     6     8 ar  
     9     6    10 ar  
    10     6    20 1   
    11     7    11 ar  
    12     7    21 1   
    13     8    12 ar  
    14     8    22 1   
    15     9    15 ar  
    16     9    23 1   
    17    10    16 ar  
    18    10    24 1   
    19    11    17 ar  
    20    11    25 1   
    21    12    18 ar  
    22    12    26 1   
    23    13    17 1   
    24    14    18 1   
    25    15    17 ar  
    26    15    28 1   
    27    16    18 ar  
    28    16    28 1   
    29    27    28 1   
@<TRIPOS>SUBSTRUCTURE
     1 17C         1 TEMP              0 ****  ****    0 ROOT
