@<TRIPOS>MOLECULE
17D
   27    28     1     0     0
SMALL
bcc


@<TRIPOS>ATOM
      1 OAA         -2.3520    -2.1100     0.4550 o          1 17D      -0.825800
      2 OAB         -3.5120    -1.2870    -1.2590 o          1 17D      -0.825800
      3 CAC          4.4410    -0.0630    -0.2650 ca         1 17D      -0.152000
      4 CAD          3.9840    -0.2550     1.0310 ca         1 17D      -0.138000
      5 CAE          3.5450    -0.1400    -1.3260 ca         1 17D      -0.138000
      6 CAF         -0.9260     2.7070     0.1900 ca         1 17D      -0.161000
      7 CAG         -2.2450     2.5570    -0.2080 ca         1 17D      -0.161000
      8 CAH          2.6390    -0.5220     1.2630 ca         1 17D      -0.127500
      9 CAI          2.2060    -0.4060    -1.0870 ca         1 17D      -0.127500
     10 CAJ         -0.1360     1.5840     0.3810 ca         1 17D      -0.155000
     11 CAK         -2.7500     1.2820    -0.4040 ca         1 17D      -0.110000
     12 CAM         -2.6660    -1.2100    -0.3480 c          1 17D       0.921200
     13 CAN          1.7330    -0.6020     0.2100 ca         1 17D      -0.049300
     14 CAO         -0.6380     0.2930     0.2120 ca         1 17D      -0.055300
     15 CAP         -1.9790     0.1410    -0.1780 ca         1 17D      -0.121600
     16 HAE          3.8930     0.0060    -2.3410 ha         1 17D       0.115500
     17 HAF         -0.5070     3.6940     0.3440 ha         1 17D       0.100000
     18 HAG         -2.8730     3.4240    -0.3730 ha         1 17D       0.103000
     19 HAH          2.2900    -0.6720     2.2790 ha         1 17D       0.134000
     20 HAI          1.5130    -0.4610    -1.9190 ha         1 17D       0.134000
     21 HAJ          0.9010     1.7200     0.6640 ha         1 17D       0.109000
     22 HAK         -3.7760     1.1610    -0.7300 ha         1 17D       0.140000
     23 HAC          5.4880     0.1420    -0.4490 ha         1 17D       0.112000
     24 CAL          0.2770    -0.8940     0.4510 c3         1 17D       0.010200
     25 HAD          4.6730    -0.1970     1.8640 ha         1 17D       0.115500
     26 HAL         -0.0290    -1.7240    -0.1840 hc         1 17D       0.077700
     27 HALA         0.1420    -1.2460     1.4760 hc         1 17D       0.077700
@<TRIPOS>BOND
     1     1    12 1   
     2     2    12 1   
     3     3     4 ar  
     4     3     5 ar  
     5     3    23 1   
     6     4     8 ar  
     7     4    25 1   
     8     5     9 ar  
     9     5    16 1   
    10     6     7 ar  
    11     6    10 ar  
    12     6    17 1   
    13     7    11 ar  
    14     7    18 1   
    15     8    13 ar  
    16     8    19 1   
    17     9    13 ar  
    18     9    20 1   
    19    10    14 ar  
    20    10    21 1   
    21    11    15 ar  
    22    11    22 1   
    23    12    15 1   
    24    13    24 1   
    25    14    15 ar  
    26    14    24 1   
    27    24    26 1   
    28    24    27 1   
@<TRIPOS>SUBSTRUCTURE
     1 17D         1 TEMP              0 ****  ****    0 ROOT
