@<TRIPOS>MOLECULE
17D
   27    28     1     0     0
SMALL
No Charge or Current Charge


@<TRIPOS>ATOM
      1 OAA         -1.6630    -1.6570    -1.2870 o          1 17D      -0.720500
      2 OAB         -0.8580    -0.2050    -2.6590 o          1 17D      -0.720500
      3 CAC          4.0300    -0.5830    -1.0260 ca         1 17D      -0.134000
      4 CAD          3.6990     0.4140    -0.0940 ca         1 17D      -0.120000
      5 CAE          3.1350    -1.6370    -1.2720 ca         1 17D      -0.120000
      6 CAF         -1.6030     2.5890     1.4370 ca         1 17D      -0.143000
      7 CAG         -2.2660     2.6920     0.2060 ca         1 17D      -0.143000
      8 CAH          2.4730     0.3570     0.5920 ca         1 17D      -0.109500
      9 CAI          1.9090    -1.6940    -0.5870 ca         1 17D      -0.109500
     10 CAJ         -0.8060     1.4670     1.7110 ca         1 17D      -0.137000
     11 CAK         -2.1340     1.6710    -0.7470 ca         1 17D      -0.092000
     12 CAM         -1.2410    -0.5380    -1.5460 c          1 17D       0.710600
     13 CAN          1.5690    -0.6960     0.3490 ca         1 17D      -0.049300
     14 CAO         -0.6650     0.4310     0.7630 ca         1 17D      -0.055300
     15 CAP         -1.3420     0.5310    -0.4830 ca         1 17D      -0.121600
     16 HAE          3.3900    -2.4090    -1.9940 ha         1 17D       0.097500
     17 HAF         -1.7020     3.3800     2.1760 ha         1 17D       0.082000
     18 HAG         -2.8820     3.5620    -0.0100 ha         1 17D       0.085000
     19 HAH          2.2240     1.1330     1.3120 ha         1 17D       0.116000
     20 HAI          1.2220    -2.5140    -0.7860 ha         1 17D       0.116000
     21 HAJ         -0.2900     1.4070     2.6660 ha         1 17D       0.091000
     22 HAK         -2.6530     1.7580    -1.7000 ha         1 17D       0.122000
     23 HAC          4.9790    -0.5390    -1.5560 ha         1 17D       0.094000
     24 CAL          0.2430    -0.7540     1.1010 c3         1 17D       0.010200
     25 HAD          4.3910     1.2310     0.0980 ha         1 17D       0.097500
     26 HAL         -0.2740    -1.7000     0.9060 hc         1 17D       0.077700
     27 HALA         0.4500    -0.7740     2.1780 hc         1 17D       0.077700
@<TRIPOS>BOND
     1     1    12 1   
     2     2    12 1   
     3     3     4 ar  
     4     3     5 ar  
     5     3    23 1   
     6     4     8 ar  
     7     4    25 1   
     8     5     9 ar  
     9     5    16 1   
    10     6     7 ar  
    11     6    10 ar  
    12     6    17 1   
    13     7    11 ar  
    14     7    18 1   
    15     8    13 ar  
    16     8    19 1   
    17     9    13 ar  
    18     9    20 1   
    19    10    14 ar  
    20    10    21 1   
    21    11    15 ar  
    22    11    22 1   
    23    12    15 1   
    24    13    24 1   
    25    14    15 ar  
    26    14    24 1   
    27    24    26 1   
    28    24    27 1   
@<TRIPOS>SUBSTRUCTURE
     1 17D         1 TEMP              0 ****  ****    0 ROOT
