@<TRIPOS>MOLECULE
17E
   16    16     1     0     0
SMALL
No Charge or Current Charge


@<TRIPOS>ATOM
      1 N1           1.1590     1.1310    -0.0980 ns         1 17E      -0.519600
      2 C2           1.5600    -0.1640     0.0030 c          1 17E       0.709400
      3 O2           2.7380    -0.4620    -0.0030 o          1 17E      -0.550000
      4 N3           0.5790    -1.1030     0.1090 nc         1 17E      -0.772100
      5 C4          -0.6670    -0.7440     0.1160 cd         1 17E       0.785500
      6 N4          -1.5060    -1.7640     0.2150 nv         1 17E      -1.035200
      7 C5          -1.1440     0.6070     0.0080 cd         1 17E      -0.372800
      8 C6          -0.1540     1.5600    -0.1010 cc         1 17E       0.016600
      9 CM5         -2.6130     0.9730     0.0150 c3         1 17E      -0.024900
     10 H1          -1.0750    -2.6530    -0.0000 hn         1 17E       0.501000
     11 H2          -2.4260    -1.6140    -0.1720 hn         1 17E       0.501000
     12 H4          -0.2860     2.6370    -0.1920 h4         1 17E       0.197000
     13 H5          -3.1150     0.5860     0.9100 hc         1 17E       0.039367
     14 H6          -2.7560     2.0610     0.0060 hc         1 17E       0.039367
     15 H7          -3.1270     0.5680    -0.8640 hc         1 17E       0.039367
     16 H8           1.9220     1.7960    -0.1750 hn         1 17E       0.447000
@<TRIPOS>BOND
     1     1     2 1   
     2     1     8 1   
     3     1    16 1   
     4     2     3 2   
     5     2     4 1   
     6     4     5 2   
     7     5     6 1   
     8     5     7 1   
     9     6    10 1   
    10     6    11 1   
    11     7     8 2   
    12     7     9 1   
    13     8    12 1   
    14     9    13 1   
    15     9    14 1   
    16     9    15 1   
@<TRIPOS>SUBSTRUCTURE
     1 17E         1 TEMP              0 ****  ****    0 ROOT
