@<TRIPOS>MOLECULE
17E
   16    16     1     0     0
SMALL
bcc


@<TRIPOS>ATOM
      1 N1           1.1720     1.1700    -0.0680 ns         1 17E      -0.473100
      2 C2           1.5900    -0.1510    -0.0190 c          1 17E       0.851900
      3 O2           2.7890    -0.4060    -0.0200 o          1 17E      -0.625500
      4 N3           0.6280    -1.0960     0.0270 nc         1 17E      -0.772100
      5 C4          -0.6490    -0.7620     0.0280 cd         1 17E       0.785500
      6 N4          -1.5450    -1.7500     0.0850 nv         1 17E      -0.924800
      7 C5          -1.1130     0.5990    -0.0200 cd         1 17E      -0.372800
      8 C6          -0.1310     1.5250    -0.0670 cc         1 17E       0.066600
      9 CM5         -2.5670     0.9500    -0.0170 c3         1 17E      -0.024900
     10 H1          -1.2330    -2.7070     0.0750 hn         1 17E       0.445800
     11 H2          -2.5330    -1.5820     0.0310 hn         1 17E       0.445800
     12 H4          -0.3330     2.5870    -0.1070 h4         1 17E       0.147000
     13 H5          -3.0720     0.5880     0.8820 hc         1 17E       0.039367
     14 H6          -2.7000     2.0310    -0.0520 hc         1 17E       0.039367
     15 H7          -3.0920     0.5290    -0.8780 hc         1 17E       0.039367
     16 H8           1.8790     1.8890    -0.1030 hn         1 17E       0.333500
@<TRIPOS>BOND
     1     1     2 1   
     2     1     8 1   
     3     1    16 1   
     4     2     3 2   
     5     2     4 1   
     6     4     5 2   
     7     5     6 1   
     8     5     7 1   
     9     6    10 1   
    10     6    11 1   
    11     7     8 2   
    12     7     9 1   
    13     8    12 1   
    14     9    13 1   
    15     9    14 1   
    16     9    15 1   
@<TRIPOS>SUBSTRUCTURE
     1 17E         1 TEMP              0 ****  ****    0 ROOT
