@<TRIPOS>MOLECULE
17F
  130   129     1     0     0
SMALL
abcg2


@<TRIPOS>ATOM
      1 C1          -3.6870     3.2610    -0.4890 c3         1 17F       0.191600
      2 N1          -3.2220     0.8230    -0.2790 n8         1 17F      -1.011200
      3 O1          -1.9220     5.9770    -0.2180 o          1 17F      -0.838500
      4 P1          -1.4310     4.5610    -0.1520 p5         1 17F       1.400800
      5 C2          -4.2210     1.8670    -0.1620 c3         1 17F       0.013500
      6 O2          -0.7600     3.9510    -1.3450 o          1 17F      -0.838500
      7 C3          -5.4480     1.5950    -1.0600 c          1 17F       0.718000
      8 O3          -2.6140     3.5670     0.3920 os         1 17F      -0.621400
      9 C4           0.3010     5.4530     1.6070 c3         1 17F       0.220600
     10 O4          -5.3330     0.7350    -1.9520 o          1 17F      -0.749000
     11 C5           1.3910     4.9700     2.5480 c3         1 17F       0.146300
     12 O5          -6.4530     2.2970    -0.8290 o          1 17F      -0.749000
     13 C6           0.9180     4.4270     3.8800 c3         1 17F       0.178600
     14 O6          -0.4770     4.3640     1.1710 os         1 17F      -0.581400
     15 C7          -1.1970     3.3420     3.7750 c          1 17F       0.624100
     16 O7           0.1340     3.2490     3.7410 os         1 17F      -0.437100
     17 C8          -1.8340     2.0230     3.4410 c3         1 17F      -0.128400
     18 O8          -1.7910     4.3510     4.0580 o          1 17F      -0.500000
     19 C9          -3.3350     1.9960     3.6680 c3         1 17F      -0.062400
     20 O9           2.1730     3.9400     1.9320 os         1 17F      -0.415100
     21 C10         -3.9430     0.6410     3.3270 c3         1 17F      -0.081400
     22 O10          3.4780     5.4160     0.8750 o          1 17F      -0.521000
     23 C11         -5.4510     0.6130     3.5400 c3         1 17F      -0.068400
     24 C12         -6.0970    -0.7010     3.1190 c3         1 17F      -0.075400
     25 C17          3.1670     4.2760     1.1160 c          1 17F       0.606100
     26 C18          3.8300     3.0600     0.5290 c3         1 17F      -0.145400
     27 C19          5.2300     3.3270    -0.0040 c3         1 17F      -0.064400
     28 C20          5.8660     2.0680    -0.5800 c3         1 17F      -0.077400
     29 C1X         -7.5930    -0.7420     3.4040 c3         1 17F      -0.069400
     30 C1Y          7.2980     2.2890    -1.0490 c3         1 17F      -0.073400
     31 C1Z          7.9400     1.0320    -1.6210 c3         1 17F      -0.076400
     32 C2X         -8.2490    -2.0580     2.9860 c3         1 17F      -0.047200
     33 C21         -9.6820    -2.1320     3.4110 c2         1 17F      -0.200200
     34 C22        -10.7630    -2.1800     2.6330 c2         1 17F      -0.230200
     35 C23        -10.8130    -2.2130     1.1370 c3         1 17F      -0.044200
     36 C24        -11.2780    -3.5730     0.6120 c3         1 17F      -0.068400
     37 C25        -11.4860    -3.5920    -0.8970 c3         1 17F      -0.078400
     38 C26        -11.9410    -4.9500    -1.4190 c3         1 17F      -0.071400
     39 C27        -12.2070    -4.9620    -2.9190 c3         1 17F      -0.076400
     40 C28        -12.6610    -6.3200    -3.4380 c3         1 17F      -0.074400
     41 C29        -12.9600    -6.3290    -4.9320 c3         1 17F      -0.076400
     42 C30        -13.4130    -7.6920    -5.4360 c3         1 17F      -0.086100
     43 C31          9.4000     1.2280    -2.0070 c3         1 17F      -0.071400
     44 C32         10.0400    -0.0380    -2.5810 c3         1 17F      -0.048200
     45 C33         11.4740     0.1740    -2.9560 c2         1 17F      -0.203200
     46 C34         12.5460    -0.3690    -2.3810 c2         1 17F      -0.229200
     47 C35         12.5660    -1.3560    -1.2540 c3         1 17F      -0.041200
     48 C36         13.0520    -2.7350    -1.7030 c3         1 17F      -0.071400
     49 C37         13.0700    -3.7570    -0.5740 c3         1 17F      -0.075400
     50 C38         13.5620    -5.1290    -1.0170 c3         1 17F      -0.074400
     51 C39         13.5360    -6.1700     0.0960 c3         1 17F      -0.075400
     52 C40         14.0320    -7.5390    -0.3500 c3         1 17F      -0.075400
     53 C41         13.9890    -8.5890     0.7540 c3         1 17F      -0.075400
     54 C42         14.4890    -9.9520     0.2970 c3         1 17F      -0.087100
     55 H1          -3.3530     3.2770    -1.5340 h1         1 17F       0.031200
     56 H1A         -4.4820     4.0040    -0.3800 h1         1 17F       0.031200
     57 HN1         -3.0890     0.6100    -1.2600 hn         1 17F       0.387500
     58 HN1A        -2.3350     1.1610     0.0720 hn         1 17F       0.387500
     59 H2          -4.5780     1.8900     0.8750 h1         1 17F       0.039700
     60 H4          -0.3040     6.1930     2.1430 h1         1 17F       0.034200
     61 H4A          0.7730     5.9790     0.7710 h1         1 17F       0.034200
     62 H5           2.0190     5.8360     2.7830 h1         1 17F       0.037700
     63 H6           1.7820     4.1480     4.4850 h1         1 17F       0.044200
     64 H6A          0.3770     5.2110     4.4100 h1         1 17F       0.044200
     65 H8          -1.6090     1.8190     2.3900 hc         1 17F       0.075700
     66 H8A         -1.3370     1.2340     4.0130 hc         1 17F       0.075700
     67 H9          -3.5590     2.2450     4.7100 hc         1 17F       0.052200
     68 H9A         -3.8060     2.7660     3.0530 hc         1 17F       0.052200
     69 H10         -3.7160     0.3900     2.2850 hc         1 17F       0.048700
     70 H10A        -3.4760    -0.1390     3.9390 hc         1 17F       0.048700
     71 H11         -5.6710     0.8060     4.5960 hc         1 17F       0.036200
     72 H11A        -5.9110     1.4350     2.9810 hc         1 17F       0.036200
     73 H12         -5.9220    -0.8640     2.0500 hc         1 17F       0.043700
     74 H12A        -5.6080    -1.5320     3.6390 hc         1 17F       0.043700
     75 H18          3.8470     2.2650     1.2780 hc         1 17F       0.080700
     76 H18A         3.1830     2.6940    -0.2770 hc         1 17F       0.080700
     77 H19          5.1950     4.1030    -0.7720 hc         1 17F       0.045700
     78 H19A         5.8610     3.7140     0.8020 hc         1 17F       0.045700
     79 H20          5.8550     1.2760     0.1760 hc         1 17F       0.040200
     80 H20A         5.2580     1.7010    -1.4150 hc         1 17F       0.040200
     81 H29         -7.7600    -0.5770     4.4740 hc         1 17F       0.037200
     82 H30         -8.0890     0.0870     2.8880 hc         1 17F       0.037200
     83 H31          7.3180     3.0840    -1.8030 hc         1 17F       0.035700
     84 H32          7.8990     2.6520    -0.2080 hc         1 17F       0.035700
     85 H33          7.8700     0.2240    -0.8840 hc         1 17F       0.038200
     86 H34          7.3710     0.6970    -2.4950 hc         1 17F       0.038200
     87 H35         -8.1460    -2.1940     1.9070 hc         1 17F       0.045700
     88 H36         -7.7010    -2.8850     3.4530 hc         1 17F       0.045700
     89 H37         -9.8400    -2.1290     4.4870 ha         1 17F       0.150000
     90 H38        -11.7320    -2.2300     3.1230 ha         1 17F       0.146000
     91 H39        -11.5130    -1.4460     0.7890 hc         1 17F       0.057200
     92 H40         -9.8430    -1.9640     0.7000 hc         1 17F       0.057200
     93 H41        -10.5450    -4.3350     0.8940 hc         1 17F       0.029200
     94 H42        -12.2130    -3.8520     1.1100 hc         1 17F       0.029200
     95 H43        -12.2280    -2.8320    -1.1670 hc         1 17F       0.046200
     96 H44        -10.5580    -3.3010    -1.4000 hc         1 17F       0.046200
     97 H45        -11.1840    -5.7040    -1.1770 hc         1 17F       0.030700
     98 H46        -12.8510    -5.2540    -0.8890 hc         1 17F       0.030700
     99 H47        -12.9680    -4.2100    -3.1560 hc         1 17F       0.041700
    100 H48        -11.3010    -4.6530    -3.4530 hc         1 17F       0.041700
    101 H49        -11.8910    -7.0690    -3.2180 hc         1 17F       0.032200
    102 H50        -13.5550    -6.6370    -2.8890 hc         1 17F       0.032200
    103 H51        -13.7300    -5.5820    -5.1500 hc         1 17F       0.039200
    104 H52        -12.0680    -6.0110    -5.4820 hc         1 17F       0.039200
    105 H53        -12.6430    -8.4480    -5.2750 hc         1 17F       0.026700
    106 H54        -14.3120    -8.0240    -4.9130 hc         1 17F       0.026700
    107 H55        -13.6390    -7.6720    -6.5030 hc         1 17F       0.026700
    108 H56          9.4830     2.0400    -2.7390 hc         1 17F       0.037200
    109 H57          9.9690     1.5490    -1.1280 hc         1 17F       0.037200
    110 H58          9.9390    -0.8530    -1.8600 hc         1 17F       0.045700
    111 H59          9.4780    -0.3430    -3.4700 hc         1 17F       0.045700
    112 H60         11.6370     0.8700    -3.7750 ha         1 17F       0.163000
    113 H61         13.5220    -0.0980    -2.7750 ha         1 17F       0.159000
    114 H62         13.2320    -0.9870    -0.4660 hc         1 17F       0.044200
    115 H63         11.5780    -1.4490    -0.7980 hc         1 17F       0.044200
    116 H64         12.4060    -3.0950    -2.5110 hc         1 17F       0.037200
    117 H65         14.0550    -2.6450    -2.1340 hc         1 17F       0.037200
    118 H66         13.7030    -3.3900     0.2430 hc         1 17F       0.038200
    119 H67         12.0620    -3.8500    -0.1560 hc         1 17F       0.038200
    120 H68         12.9480    -5.4800    -1.8550 hc         1 17F       0.035700
    121 H69         14.5810    -5.0400    -1.4080 hc         1 17F       0.035700
    122 H70         14.1450    -5.8200     0.9370 hc         1 17F       0.038200
    123 H71         12.5140    -6.2610     0.4800 hc         1 17F       0.038200
    124 H72         13.4310    -7.8830    -1.2000 hc         1 17F       0.035700
    125 H73         15.0580    -7.4500    -0.7240 hc         1 17F       0.035700
    126 H74         14.5860    -8.2450     1.6040 hc         1 17F       0.036700
    127 H75         12.9630    -8.6810     1.1250 hc         1 17F       0.036700
    128 H76         13.8930   -10.3300    -0.5360 hc         1 17F       0.029367
    129 H77         15.5260    -9.9000    -0.0400 hc         1 17F       0.029367
    130 H78         14.4380   -10.6880     1.0990 hc         1 17F       0.029367
@<TRIPOS>BOND
     1     1     5 1   
     2     1     8 1   
     3     1    55 1   
     4     1    56 1   
     5     2     5 1   
     6     2    57 1   
     7     2    58 1   
     8     3     4 1   
     9     4     6 1   
    10     4     8 1   
    11     4    14 1   
    12     5     7 1   
    13     5    59 1   
    14     7    10 1   
    15     7    12 1   
    16     9    11 1   
    17     9    14 1   
    18     9    60 1   
    19     9    61 1   
    20    11    13 1   
    21    11    20 1   
    22    11    62 1   
    23    13    16 1   
    24    13    63 1   
    25    13    64 1   
    26    15    16 1   
    27    15    17 1   
    28    15    18 2   
    29    17    19 1   
    30    17    65 1   
    31    17    66 1   
    32    19    21 1   
    33    19    67 1   
    34    19    68 1   
    35    20    25 1   
    36    21    23 1   
    37    21    69 1   
    38    21    70 1   
    39    22    25 2   
    40    23    24 1   
    41    23    71 1   
    42    23    72 1   
    43    24    29 1   
    44    24    73 1   
    45    24    74 1   
    46    25    26 1   
    47    26    27 1   
    48    26    75 1   
    49    26    76 1   
    50    27    28 1   
    51    27    77 1   
    52    27    78 1   
    53    28    30 1   
    54    28    79 1   
    55    28    80 1   
    56    29    32 1   
    57    29    81 1   
    58    29    82 1   
    59    30    31 1   
    60    30    83 1   
    61    30    84 1   
    62    31    43 1   
    63    31    85 1   
    64    31    86 1   
    65    32    33 1   
    66    32    87 1   
    67    32    88 1   
    68    33    34 2   
    69    33    89 1   
    70    34    35 1   
    71    34    90 1   
    72    35    36 1   
    73    35    91 1   
    74    35    92 1   
    75    36    37 1   
    76    36    93 1   
    77    36    94 1   
    78    37    38 1   
    79    37    95 1   
    80    37    96 1   
    81    38    39 1   
    82    38    97 1   
    83    38    98 1   
    84    39    40 1   
    85    39    99 1   
    86    39   100 1   
    87    40    41 1   
    88    40   101 1   
    89    40   102 1   
    90    41    42 1   
    91    41   103 1   
    92    41   104 1   
    93    42   105 1   
    94    42   106 1   
    95    42   107 1   
    96    43    44 1   
    97    43   108 1   
    98    43   109 1   
    99    44    45 1   
   100    44   110 1   
   101    44   111 1   
   102    45    46 2   
   103    45   112 1   
   104    46    47 1   
   105    46   113 1   
   106    47    48 1   
   107    47   114 1   
   108    47   115 1   
   109    48    49 1   
   110    48   116 1   
   111    48   117 1   
   112    49    50 1   
   113    49   118 1   
   114    49   119 1   
   115    50    51 1   
   116    50   120 1   
   117    50   121 1   
   118    51    52 1   
   119    51   122 1   
   120    51   123 1   
   121    52    53 1   
   122    52   124 1   
   123    52   125 1   
   124    53    54 1   
   125    53   126 1   
   126    53   127 1   
   127    54   128 1   
   128    54   129 1   
   129    54   130 1   
@<TRIPOS>SUBSTRUCTURE
     1 17F         1 TEMP              0 ****  ****    0 ROOT
