@<TRIPOS>MOLECULE
17F
  130   129     1     0     0
SMALL
No Charge or Current Charge


@<TRIPOS>ATOM
      1 C1          -4.1350     4.0030     0.3610 c3         1 17F       0.191600
      2 N1          -4.8520     2.2420    -1.3860 n8         1 17F      -1.011200
      3 O1          -1.9470     4.6480    -1.7250 o          1 17F      -0.838500
      4 P1          -1.8040     3.4600    -0.8350 p5         1 17F       1.400800
      5 C2          -5.1160     2.8480    -0.0180 c3         1 17F       0.013500
      6 O2          -1.9740     2.1760    -1.5760 o          1 17F      -0.838500
      7 C3          -6.5870     3.3610     0.2440 c          1 17F       0.718000
      8 O3          -2.7790     3.5270     0.4460 os         1 17F      -0.621400
      9 C4           0.0790     4.7560     0.4650 c3         1 17F       0.220600
     10 O4          -7.0210     4.2740    -0.4490 o          1 17F      -0.749000
     11 C5           1.4420     4.5560     1.2080 c3         1 17F       0.146300
     12 O5          -7.2630     2.7930     1.0920 o          1 17F      -0.749000
     13 C6           1.3690     3.9380     2.6380 c3         1 17F       0.178600
     14 O6          -0.4010     3.5010    -0.0480 os         1 17F      -0.581400
     15 C7          -0.7460     2.7930     2.9690 c          1 17F       0.624100
     16 O7           0.5880     2.7210     2.6550 os         1 17F      -0.437100
     17 C8          -1.4340     1.4360     2.7870 c3         1 17F      -0.128400
     18 O8          -1.3100     3.8040     3.3720 o          1 17F      -0.500000
     19 C9          -2.8760     1.3390     3.3400 c3         1 17F      -0.062400
     20 O9           2.3410     3.7420     0.4120 os         1 17F      -0.415100
     21 C10         -3.5270    -0.0370     3.0810 c3         1 17F      -0.081400
     22 O10          2.6750     5.3900    -1.1600 o          1 17F      -0.521000
     23 C11         -4.9660    -0.1380     3.6320 c3         1 17F      -0.068400
     24 C12         -5.6080    -1.5220     3.3900 c3         1 17F      -0.075400
     25 C17          2.8530     4.2490    -0.7540 c          1 17F       0.606100
     26 C18          3.7160     3.2190    -1.4850 c3         1 17F      -0.145400
     27 C19          5.2090     3.3700    -1.1080 c3         1 17F      -0.064400
     28 C20          6.1170     2.3390    -1.8150 c3         1 17F      -0.077400
     29 C1X         -7.0440    -1.6290     3.9500 c3         1 17F      -0.069400
     30 C1Y          7.6070     2.4900    -1.4400 c3         1 17F      -0.073400
     31 C1Z          8.5150     1.4590    -2.1450 c3         1 17F      -0.076400
     32 C2X         -7.6810    -3.0150     3.7230 c3         1 17F      -0.047200
     33 C21         -9.0890    -3.0950     4.2830 c2         1 17F      -0.200200
     34 C22        -10.2390    -2.9580     3.5990 c2         1 17F      -0.230200
     35 C23        -10.3890    -2.6550     2.1200 c3         1 17F      -0.044200
     36 C24        -10.6130    -3.9330     1.2850 c3         1 17F      -0.068400
     37 C25        -10.7630    -3.6530    -0.2260 c3         1 17F      -0.078400
     38 C26        -10.9870    -4.9340    -1.0590 c3         1 17F      -0.071400
     39 C27        -11.1360    -4.6560    -2.5700 c3         1 17F      -0.076400
     40 C28        -11.3610    -5.9380    -3.4020 c3         1 17F      -0.074400
     41 C29        -11.5100    -5.6600    -4.9140 c3         1 17F      -0.076400
     42 C30        -11.7350    -6.9380    -5.7430 c3         1 17F      -0.086100
     43 C31         10.0060     1.6100    -1.7700 c3         1 17F      -0.071400
     44 C32         10.9150     0.5790    -2.4700 c3         1 17F      -0.048200
     45 C33         12.3720     0.7420    -2.0780 c2         1 17F      -0.203200
     46 C34         13.0320     0.0580    -1.1270 c2         1 17F      -0.229200
     47 C35         12.4580    -1.0030    -0.2060 c3         1 17F      -0.041200
     48 C36         12.7160    -2.4300    -0.7310 c3         1 17F      -0.071400
     49 C37         12.1330    -3.5280     0.1840 c3         1 17F      -0.075400
     50 C38         12.3900    -4.9560    -0.3450 c3         1 17F      -0.074400
     51 C39         11.8050    -6.0550     0.5690 c3         1 17F      -0.075400
     52 C40         12.0620    -7.4830     0.0400 c3         1 17F      -0.075400
     53 C41         11.4780    -8.5810     0.9540 c3         1 17F      -0.075400
     54 C42         11.7330   -10.0060     0.4260 c3         1 17F      -0.087100
     55 H1          -4.2240     4.8180    -0.3710 h1         1 17F       0.031200
     56 H1A         -4.4360     4.4100     1.3350 h1         1 17F       0.031200
     57 HN1         -5.0410     2.9520    -2.1020 hn         1 17F       0.387500
     58 HN1A        -3.8330     2.0780    -1.4730 hn         1 17F       0.387500
     59 H2          -4.9420     2.0450     0.7120 h1         1 17F       0.039700
     60 H4          -0.6470     5.2000     1.1570 h1         1 17F       0.034200
     61 H4A          0.2220     5.4720    -0.3550 h1         1 17F       0.034200
     62 H5           1.8840     5.5520     1.3420 h1         1 17F       0.037700
     63 H6           2.3960     3.7160     2.9570 h1         1 17F       0.044200
     64 H6A          0.9790     4.6820     3.3450 h1         1 17F       0.044200
     65 H8          -1.3930     1.2000     1.7180 hc         1 17F       0.075700
     66 H8A         -0.7760     0.6640     3.2000 hc         1 17F       0.075700
     67 H9          -2.8620     1.5380     4.4190 hc         1 17F       0.052200
     68 H9A         -3.4930     2.1210     2.8790 hc         1 17F       0.052200
     69 H10         -3.5410    -0.2300     2.0010 hc         1 17F       0.048700
     70 H10A        -2.9090    -0.8190     3.5390 hc         1 17F       0.048700
     71 H11         -4.9550     0.0700     4.7090 hc         1 17F       0.036200
     72 H11A        -5.5870     0.6350     3.1620 hc         1 17F       0.036200
     73 H12         -5.6250    -1.7280     2.3130 hc         1 17F       0.043700
     74 H12A        -4.9830    -2.2950     3.8540 hc         1 17F       0.043700
     75 H18          3.3990     2.2130    -1.1870 hc         1 17F       0.080700
     76 H18A         3.6010     3.3570    -2.5660 hc         1 17F       0.080700
     77 H19          5.5450     4.3820    -1.3650 hc         1 17F       0.045700
     78 H19A         5.3190     3.2620    -0.0220 hc         1 17F       0.045700
     79 H20          5.7820     1.3260    -1.5570 hc         1 17F       0.040200
     80 H20A         6.0060     2.4460    -2.9010 hc         1 17F       0.040200
     81 H29         -7.0300    -1.4130     5.0260 hc         1 17F       0.037200
     82 H30         -7.6730    -0.8640     3.4780 hc         1 17F       0.037200
     83 H31          7.9430     3.5020    -1.6990 hc         1 17F       0.035700
     84 H32          7.7180     2.3840    -0.3540 hc         1 17F       0.035700
     85 H33          8.1800     0.4470    -1.8860 hc         1 17F       0.038200
     86 H34          8.4050     1.5650    -3.2320 hc         1 17F       0.038200
     87 H35         -7.6750    -3.2400     2.6500 hc         1 17F       0.045700
     88 H36         -7.0550    -3.7830     4.1950 hc         1 17F       0.045700
     89 H37         -9.1240    -3.3040     5.3540 ha         1 17F       0.150000
     90 H38        -11.1900    -3.0510     4.1270 ha         1 17F       0.146000
     91 H39        -11.2330    -1.9700     1.9680 hc         1 17F       0.057200
     92 H40         -9.5050    -2.1290     1.7390 hc         1 17F       0.057200
     93 H41         -9.7690    -4.6150     1.4440 hc         1 17F       0.029200
     94 H42        -11.5120    -4.4450     1.6490 hc         1 17F       0.029200
     95 H43        -11.6060    -2.9680    -0.3840 hc         1 17F       0.046200
     96 H44         -9.8630    -3.1410    -0.5890 hc         1 17F       0.046200
     97 H45        -10.1440    -5.6190    -0.9000 hc         1 17F       0.030700
     98 H46        -11.8880    -5.4460    -0.6960 hc         1 17F       0.030700
     99 H47        -11.9780    -3.9710    -2.7290 hc         1 17F       0.041700
    100 H48        -10.2350    -4.1450    -2.9330 hc         1 17F       0.041700
    101 H49        -10.5190    -6.6230    -3.2430 hc         1 17F       0.032200
    102 H50        -12.2620    -6.4480    -3.0390 hc         1 17F       0.032200
    103 H51        -12.3520    -4.9760    -5.0770 hc         1 17F       0.039200
    104 H52        -10.6090    -5.1510    -5.2800 hc         1 17F       0.039200
    105 H53        -10.8910    -7.6290    -5.6290 hc         1 17F       0.026700
    106 H54        -12.6500    -7.4520    -5.4230 hc         1 17F       0.026700
    107 H55        -11.8350    -6.6910    -6.8070 hc         1 17F       0.026700
    108 H56         10.3440     2.6210    -2.0310 hc         1 17F       0.037200
    109 H57         10.1170     1.5050    -0.6840 hc         1 17F       0.037200
    110 H58         10.5600    -0.4310    -2.2290 hc         1 17F       0.045700
    111 H59         10.8120     0.6830    -3.5570 hc         1 17F       0.045700
    112 H60         12.9030     1.4920    -2.6680 ha         1 17F       0.163000
    113 H61         14.0890     0.2650    -0.9520 ha         1 17F       0.159000
    114 H62         12.8970    -0.8990     0.7940 hc         1 17F       0.044200
    115 H63         11.3780    -0.8600    -0.0760 hc         1 17F       0.044200
    116 H64         12.2800    -2.5260    -1.7330 hc         1 17F       0.037200
    117 H65         13.7980    -2.5830    -0.8370 hc         1 17F       0.037200
    118 H66         12.5690    -3.4320     1.1860 hc         1 17F       0.038200
    119 H67         11.0520    -3.3730     0.2890 hc         1 17F       0.038200
    120 H68         11.9540    -5.0520    -1.3480 hc         1 17F       0.035700
    121 H69         13.4710    -5.1120    -0.4500 hc         1 17F       0.035700
    122 H70         12.2410    -5.9590     1.5720 hc         1 17F       0.038200
    123 H71         10.7240    -5.8980     0.6740 hc         1 17F       0.038200
    124 H72         11.6260    -7.5790    -0.9630 hc         1 17F       0.035700
    125 H73         13.1430    -7.6390    -0.0650 hc         1 17F       0.035700
    126 H74         11.9130    -8.4900     1.9570 hc         1 17F       0.036700
    127 H75         10.3960    -8.4290     1.0600 hc         1 17F       0.036700
    128 H76         11.2780   -10.1400    -0.5630 hc         1 17F       0.029367
    129 H77         12.8090   -10.2020     0.3420 hc         1 17F       0.029367
    130 H78         11.3010   -10.7490     1.1060 hc         1 17F       0.029367
@<TRIPOS>BOND
     1     1     5 1   
     2     1     8 1   
     3     1    55 1   
     4     1    56 1   
     5     2     5 1   
     6     2    57 1   
     7     2    58 1   
     8     3     4 1   
     9     4     6 1   
    10     4     8 1   
    11     4    14 1   
    12     5     7 1   
    13     5    59 1   
    14     7    10 1   
    15     7    12 1   
    16     9    11 1   
    17     9    14 1   
    18     9    60 1   
    19     9    61 1   
    20    11    13 1   
    21    11    20 1   
    22    11    62 1   
    23    13    16 1   
    24    13    63 1   
    25    13    64 1   
    26    15    16 1   
    27    15    17 1   
    28    15    18 2   
    29    17    19 1   
    30    17    65 1   
    31    17    66 1   
    32    19    21 1   
    33    19    67 1   
    34    19    68 1   
    35    20    25 1   
    36    21    23 1   
    37    21    69 1   
    38    21    70 1   
    39    22    25 2   
    40    23    24 1   
    41    23    71 1   
    42    23    72 1   
    43    24    29 1   
    44    24    73 1   
    45    24    74 1   
    46    25    26 1   
    47    26    27 1   
    48    26    75 1   
    49    26    76 1   
    50    27    28 1   
    51    27    77 1   
    52    27    78 1   
    53    28    30 1   
    54    28    79 1   
    55    28    80 1   
    56    29    32 1   
    57    29    81 1   
    58    29    82 1   
    59    30    31 1   
    60    30    83 1   
    61    30    84 1   
    62    31    43 1   
    63    31    85 1   
    64    31    86 1   
    65    32    33 1   
    66    32    87 1   
    67    32    88 1   
    68    33    34 2   
    69    33    89 1   
    70    34    35 1   
    71    34    90 1   
    72    35    36 1   
    73    35    91 1   
    74    35    92 1   
    75    36    37 1   
    76    36    93 1   
    77    36    94 1   
    78    37    38 1   
    79    37    95 1   
    80    37    96 1   
    81    38    39 1   
    82    38    97 1   
    83    38    98 1   
    84    39    40 1   
    85    39    99 1   
    86    39   100 1   
    87    40    41 1   
    88    40   101 1   
    89    40   102 1   
    90    41    42 1   
    91    41   103 1   
    92    41   104 1   
    93    42   105 1   
    94    42   106 1   
    95    42   107 1   
    96    43    44 1   
    97    43   108 1   
    98    43   109 1   
    99    44    45 1   
   100    44   110 1   
   101    44   111 1   
   102    45    46 2   
   103    45   112 1   
   104    46    47 1   
   105    46   113 1   
   106    47    48 1   
   107    47   114 1   
   108    47   115 1   
   109    48    49 1   
   110    48   116 1   
   111    48   117 1   
   112    49    50 1   
   113    49   118 1   
   114    49   119 1   
   115    50    51 1   
   116    50   120 1   
   117    50   121 1   
   118    51    52 1   
   119    51   122 1   
   120    51   123 1   
   121    52    53 1   
   122    52   124 1   
   123    52   125 1   
   124    53    54 1   
   125    53   126 1   
   126    53   127 1   
   127    54   128 1   
   128    54   129 1   
   129    54   130 1   
@<TRIPOS>SUBSTRUCTURE
     1 17F         1 TEMP              0 ****  ****    0 ROOT
