@<TRIPOS>MOLECULE
17G
   47    51     1     0     0
SMALL
abcg2


@<TRIPOS>ATOM
      1 O5          47.4330    -4.8490   -49.0500 o          1 17G      -0.527000
      2 C27         47.8690    -3.9980   -49.8210 c          1 17G       0.562200
      3 N8          48.7030    -2.9590   -49.3310 n          1 17G      -0.211200
      4 C19         48.7790    -2.9000   -47.8930 ca         1 17G       0.023600
      5 C21         49.4800    -3.8640   -47.1840 ca         1 17G      -0.052000
      6 C18         49.5270    -3.7930   -45.7970 ca         1 17G      -0.110000
      7 C15         48.8800    -2.7630   -45.1270 ca         1 17G      -0.062000
      8 C20         48.1080    -1.8780   -47.2390 ca         1 17G      -0.056000
      9 C16         48.1740    -1.8070   -45.8540 ca         1 17G      -0.188300
     10 C24         47.5220    -0.6700   -45.1220 c3         1 17G       0.345300
     11 F3          48.4420     0.1660   -44.5770 f          1 17G      -0.110667
     12 F2          46.7490    -1.0990   -44.0980 f          1 17G      -0.110667
     13 F1          46.7380     0.0860   -45.9150 f          1 17G      -0.110667
     14 C32         47.5480    -3.9520   -51.2250 cc         1 17G      -0.302200
     15 C31         47.9530    -2.9240   -51.9970 cd         1 17G      -0.058200
     16 C26         48.7840    -1.8960   -51.4680 ca         1 17G      -0.217800
     17 C34         49.1670    -0.8000   -52.2810 ca         1 17G       0.397900
     18 N9          49.9140     0.1890   -51.8820 nb         1 17G      -0.670000
     19 C23         49.2130    -1.9500   -50.1370 ca         1 17G       0.161600
     20 C25         50.1640    -0.9550   -49.7060 ca         1 17G      -0.099000
     21 C30         50.8950    -0.9780   -48.4960 ca         1 17G      -0.085000
     22 C33         51.7710     0.0290   -48.1350 cp         1 17G      -0.009000
     23 C36         51.9420     1.1260   -49.0130 ca         1 17G      -0.081000
     24 C35         51.3010     1.1530   -50.2210 ca         1 17G      -0.089000
     25 C29         50.4300     0.1160   -50.6170 ca         1 17G       0.285000
     26 C37         52.5110    -0.0420   -46.8620 cp         1 17G      -0.154000
     27 C39         53.7920     0.4880   -46.7260 ca         1 17G       0.400900
     28 C38         51.9720    -0.6540   -45.7180 ca         1 17G      -0.020000
     29 C40         52.6970    -0.7120   -44.5520 ca         1 17G      -0.228000
     30 C41         53.9870    -0.1460   -44.5260 ca         1 17G       0.601900
     31 N10         54.5160     0.4450   -45.6060 nb         1 17G      -0.742000
     32 N43         54.7690    -0.2150   -43.4050 nv         1 17G      -1.058900
     33 H1          49.9950    -4.6520   -47.7160 ha         1 17G       0.139000
     34 H2          50.0780    -4.5370   -45.2390 ha         1 17G       0.130000
     35 H3          48.9300    -2.7000   -44.0480 ha         1 17G       0.132000
     36 H4          47.5620    -1.1400   -47.8100 ha         1 17G       0.145000
     37 H5          46.9240    -4.7510   -51.6000 ha         1 17G       0.216000
     38 H6          47.6610    -2.8630   -53.0380 ha         1 17G       0.193000
     39 H7          48.7920    -0.7700   -53.3000 h4         1 17G       0.023100
     40 H8          50.8090    -1.8230   -47.8400 ha         1 17G       0.121000
     41 H9          52.5880     1.9460   -48.7310 ha         1 17G       0.123000
     42 H10         51.4500     1.9720   -50.9130 ha         1 17G       0.137000
     43 H11         54.2740     0.9620   -47.5740 h4         1 17G       0.019100
     44 H12         50.9730    -1.0660   -45.7420 ha         1 17G       0.118000
     45 H13         52.2880    -1.1720   -43.6620 ha         1 17G       0.122000
     46 H14         55.5560     0.4140   -43.3670 hn         1 17G       0.476500
     47 H15         54.3160    -0.3940   -42.5230 hn         1 17G       0.476500
@<TRIPOS>BOND
     1     1     2 2   
     2     2     3 1   
     3     2    14 1   
     4     3     4 1   
     5     3    19 1   
     6     4     5 ar  
     7     4     8 ar  
     8     5     6 ar  
     9     5    33 1   
    10     6     7 ar  
    11     6    34 1   
    12     7     9 ar  
    13     7    35 1   
    14     8     9 ar  
    15     8    36 1   
    16     9    10 1   
    17    10    11 1   
    18    10    12 1   
    19    10    13 1   
    20    14    15 2   
    21    14    37 1   
    22    15    16 1   
    23    15    38 1   
    24    16    17 ar  
    25    16    19 ar  
    26    17    18 ar  
    27    17    39 1   
    28    18    25 ar  
    29    19    20 ar  
    30    20    21 ar  
    31    20    25 ar  
    32    21    22 ar  
    33    21    40 1   
    34    22    23 ar  
    35    22    26 1   
    36    23    24 ar  
    37    23    41 1   
    38    24    25 ar  
    39    24    42 1   
    40    26    27 ar  
    41    26    28 ar  
    42    27    31 ar  
    43    27    43 1   
    44    28    29 ar  
    45    28    44 1   
    46    29    30 ar  
    47    29    45 1   
    48    30    31 ar  
    49    30    32 1   
    50    32    46 1   
    51    32    47 1   
@<TRIPOS>SUBSTRUCTURE
     1 17G         1 TEMP              0 ****  ****    0 ROOT
