@<TRIPOS>MOLECULE
17G
   47    51     1     0     0
SMALL
No Charge or Current Charge


@<TRIPOS>ATOM
      1 O5          47.8510    -5.2630   -49.3240 o          1 17G      -0.527000
      2 C27         48.1550    -4.2520   -49.9430 c          1 17G       0.562200
      3 N8          48.7970    -3.1300   -49.3410 n          1 17G      -0.211200
      4 C19         48.7620    -2.9990   -47.8970 ca         1 17G       0.023600
      5 C21         49.1810    -4.0520   -47.0550 ca         1 17G      -0.052000
      6 C18         49.1390    -3.9100   -45.6590 ca         1 17G      -0.110000
      7 C15         48.6730    -2.7180   -45.0810 ca         1 17G      -0.062000
      8 C20         48.2800    -1.8100   -47.3030 ca         1 17G      -0.056000
      9 C16         48.2360    -1.6560   -45.9010 ca         1 17G      -0.188300
     10 C24         47.7470    -0.3340   -45.3020 c3         1 17G       0.345300
     11 F3          48.6680     0.6430   -45.4580 f          1 17G      -0.110667
     12 F2          47.4830    -0.4190   -43.9780 f          1 17G      -0.110667
     13 F1          46.6100     0.0960   -45.8960 f          1 17G      -0.110667
     14 C32         47.7980    -4.1170   -51.3600 cc         1 17G      -0.302200
     15 C31         48.0210    -2.9710   -52.0730 cd         1 17G      -0.058200
     16 C26         48.7410    -1.8650   -51.4570 ca         1 17G      -0.217800
     17 C34         48.9750    -0.6980   -52.1960 ca         1 17G       0.397900
     18 N9          49.6820     0.3400   -51.7210 nb         1 17G      -0.670000
     19 C23         49.2190    -1.9700   -50.1360 ca         1 17G       0.161600
     20 C25         50.1040    -0.9300   -49.6930 ca         1 17G      -0.099000
     21 C30         50.8940    -1.0220   -48.5160 ca         1 17G      -0.085000
     22 C33         51.7170     0.0390   -48.0670 cp         1 17G      -0.009000
     23 C36         51.7720     1.2060   -48.8560 ca         1 17G      -0.081000
     24 C35         51.0680     1.2840   -50.0640 ca         1 17G      -0.089000
     25 C29         50.2590     0.2250   -50.5090 ca         1 17G       0.285000
     26 C37         52.5100    -0.0800   -46.8010 cp         1 17G      -0.154000
     27 C39         53.7710     0.5580   -46.6490 ca         1 17G       0.400900
     28 C38         52.0360    -0.8300   -45.6970 ca         1 17G      -0.020000
     29 C40         52.8230    -0.9010   -44.5390 ca         1 17G      -0.228000
     30 C41         54.0450    -0.2280   -44.5280 ca         1 17G       0.601900
     31 N10         54.5300     0.4870   -45.5300 nb         1 17G      -0.742000
     32 N43         54.8720    -0.2170   -43.4820 nv         1 17G      -1.058900
     33 H1          49.5680    -4.9750   -47.4800 ha         1 17G       0.139000
     34 H2          49.4770    -4.7240   -45.0220 ha         1 17G       0.130000
     35 H3          48.6600    -2.6280   -43.9970 ha         1 17G       0.132000
     36 H4          47.9350    -0.9960   -47.9370 ha         1 17G       0.145000
     37 H5          47.2890    -4.9710   -51.7930 ha         1 17G       0.216000
     38 H6          47.6930    -2.9100   -53.1100 ha         1 17G       0.193000
     39 H7          48.5820    -0.5890   -53.2060 h4         1 17G       0.023100
     40 H8          50.9290    -1.9420   -47.9470 ha         1 17G       0.121000
     41 H9          52.3790     2.0530   -48.5450 ha         1 17G       0.123000
     42 H10         51.1620     2.1760   -50.6780 ha         1 17G       0.137000
     43 H11         54.1960     1.1410   -47.4660 h4         1 17G       0.019100
     44 H12         51.0740    -1.3350   -45.7310 ha         1 17G       0.118000
     45 H13         52.4900    -1.4640   -43.6730 ha         1 17G       0.122000
     46 H14         55.5930     0.4940   -43.5200 hn         1 17G       0.476500
     47 H15         54.4790    -0.4150   -42.5690 hn         1 17G       0.476500
@<TRIPOS>BOND
     1     1     2 2   
     2     2     3 1   
     3     2    14 1   
     4     3     4 1   
     5     3    19 1   
     6     4     5 ar  
     7     4     8 ar  
     8     5     6 ar  
     9     5    33 1   
    10     6     7 ar  
    11     6    34 1   
    12     7     9 ar  
    13     7    35 1   
    14     8     9 ar  
    15     8    36 1   
    16     9    10 1   
    17    10    11 1   
    18    10    12 1   
    19    10    13 1   
    20    14    15 2   
    21    14    37 1   
    22    15    16 1   
    23    15    38 1   
    24    16    17 ar  
    25    16    19 ar  
    26    17    18 ar  
    27    17    39 1   
    28    18    25 ar  
    29    19    20 ar  
    30    20    21 ar  
    31    20    25 ar  
    32    21    22 ar  
    33    21    40 1   
    34    22    23 ar  
    35    22    26 1   
    36    23    24 ar  
    37    23    41 1   
    38    24    25 ar  
    39    24    42 1   
    40    26    27 ar  
    41    26    28 ar  
    42    27    31 ar  
    43    27    43 1   
    44    28    29 ar  
    45    28    44 1   
    46    29    30 ar  
    47    29    45 1   
    48    30    31 ar  
    49    30    32 1   
    50    32    46 1   
    51    32    47 1   
@<TRIPOS>SUBSTRUCTURE
     1 17G         1 TEMP              0 ****  ****    0 ROOT
