@<TRIPOS>MOLECULE
17H
   51    54     1     0     0
SMALL
No Charge or Current Charge


@<TRIPOS>ATOM
      1 C2          -4.3900     1.5500    -1.0150 c6         1 17H      -0.180400
      2 C4          -4.4690    -0.8450    -0.2170 ce         1 17H      -0.317200
      3 C7          -0.9670    -2.1520    -0.3270 c6         1 17H      -0.068400
      4 C6          -2.4110    -2.1910     0.2080 c6         1 17H      -0.051200
      5 C9          -0.9230     0.3510     0.1190 ce         1 17H      -0.032200
      6 C11         -0.0260     1.5480     0.0980 ce         1 17H      -0.206000
      7 C1          -3.0780     1.7060    -0.2130 c6         1 17H      -0.026200
      8 C3          -5.2370     0.3660    -0.5620 c          1 17H       0.575300
      9 C5          -3.1230    -0.8490    -0.0200 cf         1 17H       0.002800
     10 C8          -0.2050    -0.9970     0.3540 c6         1 17H      -0.016500
     11 C10         -2.2930     0.3750    -0.0350 cf         1 17H      -0.101200
     12 C12          1.3300     1.5700     0.2410 c2         1 17H      -0.164200
     13 C13          2.0510     0.2570     0.5710 c5         1 17H      -0.006800
     14 C14          1.2530    -0.8830    -0.1390 c5         1 17H      -0.067700
     15 C15          2.2080    -2.0960     0.0180 c5         1 17H      -0.065400
     16 C16          3.6390    -1.4580    -0.1020 c5         1 17H      -0.110400
     17 C17          3.4270     0.1010    -0.2270 c5         1 17H       0.193000
     18 C18          2.1460     0.1030     2.1460 c3         1 17H      -0.047400
     19 C22          2.7940     1.2620     2.9450 c3         1 17H      -0.086100
     20 C20          3.4360     0.6030    -1.7220 c3         1 17H      -0.102400
     21 O3          -6.4590     0.4100    -0.5170 o          1 17H      -0.532100
     22 O17          4.4980     0.7940     0.4040 oh         1 17H      -0.653000
     23 H21         -4.0800     1.3080    -2.0400 hc         1 17H       0.070200
     24 H22         -4.9920     2.4670    -1.0490 hc         1 17H       0.070200
     25 H4          -5.0430    -1.7650    -0.1330 ha         1 17H       0.195000
     26 H71         -0.9720    -2.0130    -1.4170 hc         1 17H       0.049200
     27 H72         -0.4740    -3.1130    -0.1270 hc         1 17H       0.049200
     28 H61         -2.9600    -3.0010    -0.2910 hc         1 17H       0.057200
     29 H62         -2.4120    -2.4260     1.2810 hc         1 17H       0.057200
     30 H11         -0.5020     2.5110    -0.0730 ha         1 17H       0.178000
     31 H11A        -2.4790     2.4570    -0.7390 hc         1 17H       0.053200
     32 H12A        -3.3010     2.1200     0.7800 hc         1 17H       0.053200
     33 H8          -0.2120    -1.2110     1.4290 hc         1 17H       0.064700
     34 H12          1.8790     2.5120     0.1930 ha         1 17H       0.186000
     35 H14          1.1140    -0.6760    -1.2040 hc         1 17H       0.055700
     36 H151         2.0320    -2.8520    -0.7570 hc         1 17H       0.045700
     37 H152         2.0750    -2.5980     0.9830 hc         1 17H       0.045700
     38 H161         4.1850    -1.8740    -0.9550 hc         1 17H       0.048700
     39 H162         4.2350    -1.7100     0.7830 hc         1 17H       0.048700
     40 H181         1.1390     0.0070     2.5620 hc         1 17H       0.038700
     41 H182         2.6650    -0.8200     2.4240 hc         1 17H       0.038700
     42 H221         2.6350     1.1060     4.0190 hc         1 17H       0.035367
     43 H222         3.8750     1.3180     2.7870 hc         1 17H       0.035367
     44 H223         2.3490     2.2280     2.6810 hc         1 17H       0.035367
     45 H211         5.5400     1.1900    -2.0180 hc         1 17H       0.033700
     46 H212         5.1900    -0.4920    -2.4840 hc         1 17H       0.033700
     47 H213         4.6600     0.8470    -3.5130 hc         1 17H       0.033700
     48 H201         3.1020     1.6460    -1.7630 hc         1 17H       0.051200
     49 H202         2.7240     0.0410    -2.3330 hc         1 17H       0.051200
     50 H17          5.2940     0.6190    -0.1390 ho         1 17H       0.444000
     51 C21          4.7920     0.5290    -2.4720 c3         1 17H      -0.096100
@<TRIPOS>BOND
     1     1     7 1   
     2     1     8 1   
     3     1    23 1   
     4     1    24 1   
     5     2     8 1   
     6     2     9 2   
     7     2    25 1   
     8     3     4 1   
     9     3    10 1   
    10     3    26 1   
    11     3    27 1   
    12     4     9 1   
    13     4    28 1   
    14     4    29 1   
    15     5     6 1   
    16     5    10 1   
    17     5    11 2   
    18     6    12 2   
    19     6    30 1   
    20     7    11 1   
    21     7    31 1   
    22     7    32 1   
    23     8    21 2   
    24     9    11 1   
    25    10    14 1   
    26    10    33 1   
    27    12    13 1   
    28    12    34 1   
    29    13    14 1   
    30    13    17 1   
    31    13    18 1   
    32    14    15 1   
    33    14    35 1   
    34    15    16 1   
    35    15    36 1   
    36    15    37 1   
    37    16    17 1   
    38    16    38 1   
    39    16    39 1   
    40    17    20 1   
    41    17    22 1   
    42    18    19 1   
    43    18    40 1   
    44    18    41 1   
    45    19    42 1   
    46    19    43 1   
    47    19    44 1   
    48    20    48 1   
    49    20    49 1   
    50    20    51 1   
    51    22    50 1   
    52    45    51 1   
    53    46    51 1   
    54    47    51 1   
@<TRIPOS>SUBSTRUCTURE
     1 17H         1 TEMP              0 ****  ****    0 ROOT
