@<TRIPOS>MOLECULE
17H
   51    54     1     0     0
SMALL
bcc


@<TRIPOS>ATOM
      1 C2          -4.0720     1.5240    -1.2880 c6         1 17H      -0.180400
      2 C4          -4.3360    -0.8000    -0.3910 ce         1 17H      -0.267200
      3 C7          -0.9770    -2.1770     0.0050 c6         1 17H      -0.068400
      4 C6          -2.4150    -2.0830     0.4880 c6         1 17H      -0.051200
      5 C9          -0.8880     0.3280     0.2530 ce         1 17H      -0.032200
      6 C11         -0.0480     1.5210     0.2790 ce         1 17H      -0.156000
      7 C1          -2.9740     1.6770    -0.2420 c6         1 17H      -0.026200
      8 C3          -4.9770     0.3600    -0.9910 c          1 17H       0.575300
      9 C5          -3.0400    -0.8120     0.0030 cf         1 17H       0.002800
     10 C8          -0.1870    -0.9900     0.5270 c6         1 17H      -0.016500
     11 C10         -2.2210     0.3930    -0.0070 cf         1 17H      -0.101200
     12 C12          1.2890     1.5000     0.3960 c2         1 17H      -0.114200
     13 C13          2.0530     0.2270     0.5480 c5         1 17H      -0.006800
     14 C14          1.2130    -0.9070    -0.0570 c5         1 17H      -0.067700
     15 C15          2.1530    -2.1020    -0.0030 c5         1 17H      -0.065400
     16 C16          3.5270    -1.4780    -0.3390 c5         1 17H      -0.110400
     17 C17          3.3660     0.0730    -0.2720 c5         1 17H       0.169800
     18 C18          2.3430    -0.0160     2.0590 c3         1 17H      -0.047400
     19 C22          2.6920     1.2180     2.8840 c3         1 17H      -0.086100
     20 C20          3.2470     0.6930    -1.6770 c3         1 17H      -0.102400
     21 O3          -6.1600     0.3590    -1.2970 o          1 17H      -0.532100
     22 O17          4.4260     0.7020     0.4170 oh         1 17H      -0.590800
     23 H21         -3.6220     1.3400    -2.2710 hc         1 17H       0.070200
     24 H22         -4.6570     2.4400    -1.3730 hc         1 17H       0.070200
     25 H4          -4.9260    -1.7070    -0.3210 ha         1 17H       0.145000
     26 H71         -0.9480    -2.2000    -1.0890 hc         1 17H       0.049200
     27 H72         -0.5270    -3.1070     0.3570 hc         1 17H       0.049200
     28 H61         -3.0040    -2.9410     0.1630 hc         1 17H       0.057200
     29 H62         -2.4250    -2.0870     1.5840 hc         1 17H       0.057200
     30 H11         -0.5280     2.4880     0.2020 ha         1 17H       0.128000
     31 H11A        -2.3170     2.4870    -0.5470 hc         1 17H       0.053200
     32 H12A        -3.4320     1.9890     0.7040 hc         1 17H       0.053200
     33 H8          -0.1260    -1.1030     1.6170 hc         1 17H       0.064700
     34 H12          1.8210     2.4450     0.4270 ha         1 17H       0.136000
     35 H14          1.0670    -0.6630    -1.1160 hc         1 17H       0.055700
     36 H151         1.8720    -2.8880    -0.7050 hc         1 17H       0.045700
     37 H152         2.1570    -2.5530     0.9920 hc         1 17H       0.045700
     38 H161         3.8650    -1.7910    -1.3280 hc         1 17H       0.048700
     39 H162         4.2920    -1.8060     0.3660 hc         1 17H       0.048700
     40 H181         1.4650    -0.4760     2.5170 hc         1 17H       0.038700
     41 H182         3.1430    -0.7510     2.1680 hc         1 17H       0.038700
     42 H221         2.9180     0.9230     3.9100 hc         1 17H       0.035367
     43 H222         3.5580     1.7480     2.4930 hc         1 17H       0.035367
     44 H223         1.8610     1.9220     2.9290 hc         1 17H       0.035367
     45 H211         5.3300     1.2340    -2.0670 hc         1 17H       0.033700
     46 H212         4.8950    -0.3770    -2.6430 hc         1 17H       0.033700
     47 H213         4.3430     1.0510    -3.4990 hc         1 17H       0.033700
     48 H201         2.9390     1.7380    -1.5770 hc         1 17H       0.051200
     49 H202         2.4530     0.1960    -2.2380 hc         1 17H       0.051200
     50 H17          5.2530     0.4730    -0.0180 ho         1 17H       0.405000
     51 C21          4.5260     0.6420    -2.5060 c3         1 17H      -0.096100
@<TRIPOS>BOND
     1     1     7 1   
     2     1     8 1   
     3     1    23 1   
     4     1    24 1   
     5     2     8 1   
     6     2     9 2   
     7     2    25 1   
     8     3     4 1   
     9     3    10 1   
    10     3    26 1   
    11     3    27 1   
    12     4     9 1   
    13     4    28 1   
    14     4    29 1   
    15     5     6 1   
    16     5    10 1   
    17     5    11 2   
    18     6    12 2   
    19     6    30 1   
    20     7    11 1   
    21     7    31 1   
    22     7    32 1   
    23     8    21 2   
    24     9    11 1   
    25    10    14 1   
    26    10    33 1   
    27    12    13 1   
    28    12    34 1   
    29    13    14 1   
    30    13    17 1   
    31    13    18 1   
    32    14    15 1   
    33    14    35 1   
    34    15    16 1   
    35    15    36 1   
    36    15    37 1   
    37    16    17 1   
    38    16    38 1   
    39    16    39 1   
    40    17    20 1   
    41    17    22 1   
    42    18    19 1   
    43    18    40 1   
    44    18    41 1   
    45    19    42 1   
    46    19    43 1   
    47    19    44 1   
    48    20    48 1   
    49    20    49 1   
    50    20    51 1   
    51    22    50 1   
    52    45    51 1   
    53    46    51 1   
    54    47    51 1   
@<TRIPOS>SUBSTRUCTURE
     1 17H         1 TEMP              0 ****  ****    0 ROOT
