@<TRIPOS>MOLECULE
17I
   38    38     1     0     0
SMALL
No Charge or Current Charge


@<TRIPOS>ATOM
      1 C10         14.5140    41.8710     8.4600 ca         1 17I      -0.042000
      2 C12         13.0890    41.3790     6.4190 c          1 17I       0.668100
      3 C14         12.2970    40.9200     4.1490 c2         1 17I       0.680800
      4 C16         12.0740    40.4650     1.6950 c3         1 17I       0.217100
      5 C01         13.9620    38.3680     9.9690 c3         1 17I      -0.086600
      6 C02         13.5310    39.5550     9.0780 c3         1 17I      -0.033100
      7 C03         14.1500    40.9150     9.4520 ca         1 17I      -0.058300
      8 C04         14.3820    41.2250    10.8110 ca         1 17I      -0.110000
      9 C05         14.9960    42.4290    11.1810 ca         1 17I      -0.099000
     10 C06         15.3910    43.3450    10.1990 ca         1 17I      -0.110000
     11 C07         15.1550    43.0780     8.8390 ca         1 17I      -0.058300
     12 C08         15.5910    44.1180     7.8040 c3         1 17I      -0.033100
     13 C09         16.9570    43.7850     7.1750 c3         1 17I      -0.086600
     14 N11         14.2750    41.6410     7.0780 ns         1 17I      -0.191000
     15 N13         13.2620    41.1750     5.0780 ns         1 17I      -0.504400
     16 N15         12.8470    40.7080     2.9270 nu         1 17I      -0.913400
     17 N18         11.0510    40.9280     4.3340 n2         1 17I      -0.859100
     18 O19         11.9940    41.3470     6.9640 o          1 17I      -0.611100
     19 H1          12.7500    40.3250     0.8400 h1         1 17I       0.040033
     20 H2          11.4560    39.5620     1.7970 h1         1 17I       0.040033
     21 H3          11.4150    41.3170     1.4770 h1         1 17I       0.040033
     22 H4          13.6070    37.4250     9.5380 hc         1 17I       0.033367
     23 H5          15.0550    38.3180    10.0450 hc         1 17I       0.033367
     24 H6          13.5410    38.4500    10.9770 hc         1 17I       0.033367
     25 H7          12.4370    39.6290     9.1030 hc         1 17I       0.053200
     26 H8          13.7980    39.2800     8.0520 hc         1 17I       0.053200
     27 H9          14.0930    40.5330    11.5960 ha         1 17I       0.116500
     28 H10         15.1730    42.6480    12.2310 ha         1 17I       0.115000
     29 H11         15.8770    44.2710    10.4990 ha         1 17I       0.116500
     30 H12         15.6560    45.1100     8.2690 hc         1 17I       0.053200
     31 H13         14.8410    44.2190     7.0100 hc         1 17I       0.053200
     32 H14         17.2430    44.5550     6.4490 hc         1 17I       0.033367
     33 H15         17.7340    43.7350     7.9470 hc         1 17I       0.033367
     34 H16         16.9250    42.8200     6.6560 hc         1 17I       0.033367
     35 H17         15.0970    41.7020     6.4920 hn         1 17I       0.152000
     36 H18         14.2050    41.2500     4.7380 hn         1 17I       0.307500
     37 H19         13.8220    40.4230     2.9180 hn         1 17I       0.463000
     38 H20         10.9230    41.1230     5.3410 hn         1 17I       0.429400
@<TRIPOS>BOND
     1     1     7 ar  
     2     1    11 ar  
     3     1    14 1   
     4     2    14 1   
     5     2    15 1   
     6     2    18 2   
     7     3    15 1   
     8     3    16 1   
     9     3    17 2   
    10     4    16 1   
    11     4    19 1   
    12     4    20 1   
    13     4    21 1   
    14     5     6 1   
    15     5    22 1   
    16     5    23 1   
    17     5    24 1   
    18     6     7 1   
    19     6    25 1   
    20     6    26 1   
    21     7     8 ar  
    22     8     9 ar  
    23     8    27 1   
    24     9    10 ar  
    25     9    28 1   
    26    10    11 ar  
    27    10    29 1   
    28    11    12 1   
    29    12    13 1   
    30    12    30 1   
    31    12    31 1   
    32    13    32 1   
    33    13    33 1   
    34    13    34 1   
    35    14    35 1   
    36    15    36 1   
    37    16    37 1   
    38    17    38 1   
@<TRIPOS>SUBSTRUCTURE
     1 17I         1 TEMP              0 ****  ****    0 ROOT
