@<TRIPOS>MOLECULE
17I
   38    38     1     0     0
SMALL
abcg2


@<TRIPOS>ATOM
      1 C10         14.6460    41.8070     8.4110 ca         1 17I      -0.042000
      2 C12         13.3490    41.5400     6.3810 c          1 17I       0.668100
      3 C14         12.3720    41.1030     4.1470 c2         1 17I       0.680800
      4 C16         11.8260    40.2850     1.9250 c3         1 17I       0.217100
      5 C01         13.8120    38.3660     9.9340 c3         1 17I      -0.086600
      6 C02         13.8810    39.4480     8.8670 c3         1 17I      -0.033100
      7 C03         14.3320    40.8070     9.3410 ca         1 17I      -0.058300
      8 C04         14.4570    41.1090    10.6930 ca         1 17I      -0.110000
      9 C05         14.8870    42.3630    11.1070 ca         1 17I      -0.099000
     10 C06         15.2030    43.3330    10.1720 ca         1 17I      -0.110000
     11 C07         15.0850    43.0710     8.8090 ca         1 17I      -0.058300
     12 C08         15.4700    44.1260     7.8090 c3         1 17I      -0.033100
     13 C09         16.9160    43.9770     7.3380 c3         1 17I      -0.086600
     14 N11         14.5430    41.5190     7.0260 ns         1 17I      -0.191000
     15 N13         13.4420    41.2410     5.0410 ns         1 17I      -0.504400
     16 N15         12.7940    40.6100     2.9440 nu         1 17I      -0.913400
     17 N18         11.1520    41.4100     4.3430 n2         1 17I      -0.859100
     18 O19         12.2990    41.8000     6.9470 o          1 17I      -0.611100
     19 H1          12.3610    39.9270     1.0490 h1         1 17I       0.040033
     20 H2          11.1150    39.5150     2.2370 h1         1 17I       0.040033
     21 H3          11.2580    41.1690     1.6390 h1         1 17I       0.040033
     22 H4          13.5400    37.4150     9.4770 hc         1 17I       0.033367
     23 H5          14.7700    38.2290    10.4360 hc         1 17I       0.033367
     24 H6          13.0630    38.5860    10.6950 hc         1 17I       0.033367
     25 H7          12.8970    39.5450     8.3990 hc         1 17I       0.053200
     26 H8          14.5490    39.1170     8.0670 hc         1 17I       0.053200
     27 H9          14.2230    40.3620    11.4400 ha         1 17I       0.116500
     28 H10         14.9770    42.5790    12.1630 ha         1 17I       0.115000
     29 H11         15.5400    44.3100    10.4960 ha         1 17I       0.116500
     30 H12         15.3460    45.1090     8.2680 hc         1 17I       0.053200
     31 H13         14.8020    44.1010     6.9460 hc         1 17I       0.053200
     32 H14         17.1780    44.7680     6.6340 hc         1 17I       0.033367
     33 H15         17.6090    44.0330     8.1780 hc         1 17I       0.033367
     34 H16         17.0810    43.0220     6.8370 hc         1 17I       0.033367
     35 H17         15.3900    41.3090     6.5190 hn         1 17I       0.152000
     36 H18         14.3640    41.0840     4.6620 hn         1 17I       0.307500
     37 H19         13.6130    40.0240     2.9550 hn         1 17I       0.463000
     38 H20         11.0230    41.8290     5.2530 hn         1 17I       0.429400
@<TRIPOS>BOND
     1     1     7 ar  
     2     1    11 ar  
     3     1    14 1   
     4     2    14 1   
     5     2    15 1   
     6     2    18 2   
     7     3    15 1   
     8     3    16 1   
     9     3    17 2   
    10     4    16 1   
    11     4    19 1   
    12     4    20 1   
    13     4    21 1   
    14     5     6 1   
    15     5    22 1   
    16     5    23 1   
    17     5    24 1   
    18     6     7 1   
    19     6    25 1   
    20     6    26 1   
    21     7     8 ar  
    22     8     9 ar  
    23     8    27 1   
    24     9    10 ar  
    25     9    28 1   
    26    10    11 ar  
    27    10    29 1   
    28    11    12 1   
    29    12    13 1   
    30    12    30 1   
    31    12    31 1   
    32    13    32 1   
    33    13    33 1   
    34    13    34 1   
    35    14    35 1   
    36    15    36 1   
    37    16    37 1   
    38    17    38 1   
@<TRIPOS>SUBSTRUCTURE
     1 17I         1 TEMP              0 ****  ****    0 ROOT
