@<TRIPOS>MOLECULE
17J
   44    47     1     0     0
SMALL
bcc


@<TRIPOS>ATOM
      1 C2           3.3690    -0.5550     0.4570 c          1 17J       0.797100
      2 O1           3.9920    -1.5860     0.2550 o          1 17J      -0.611100
      3 N10          2.0560    -0.5440     0.8120 n          1 17J      -0.501800
      4 C15          1.3790    -1.7810     1.1400 c6         1 17J       0.093000
      5 C14          0.2320    -2.0480     0.1780 c6         1 17J       0.201300
      6 N13         -0.6430    -0.8930     0.1220 nh         1 17J      -0.766300
      7 C12          0.0180     0.3650    -0.1760 c6         1 17J       0.201300
      8 C11          1.1680     0.6030     0.7920 c6         1 17J       0.093000
      9 C16         -1.9710    -0.9910     0.1270 cc         1 17J       0.713300
     10 S20         -2.8380    -2.4910     0.3470 ss         1 17J      -0.017300
     11 N19         -4.3050    -1.7100     0.2490 nc         1 17J      -0.533100
     12 C18         -4.0780    -0.4400     0.0610 cd         1 17J       0.689500
     13 N17         -2.8010     0.0100    -0.0190 nd         1 17J      -0.780000
     14 C21         -5.1920     0.5120    -0.0650 ca         1 17J      -0.134500
     15 C26         -6.5140     0.0790     0.0510 ca         1 17J      -0.087000
     16 C25         -7.5590     0.9790    -0.0720 ca         1 17J      -0.143000
     17 C24         -7.2990     2.3240    -0.3130 ca         1 17J      -0.111000
     18 C23         -5.9870     2.7610    -0.4290 ca         1 17J      -0.143000
     19 C22         -4.9380     1.8620    -0.3060 ca         1 17J      -0.087000
     20 H2           2.0790    -2.6100     1.1080 h1         1 17J       0.066200
     21 H3           0.9840    -1.7120     2.1590 h1         1 17J       0.066200
     22 H4           0.6170    -2.2720    -0.8220 h1         1 17J       0.069450
     23 H5          -0.3110    -2.9260     0.5290 h1         1 17J       0.069450
     24 H6           0.3990     0.3410    -1.2020 h1         1 17J       0.069450
     25 H7          -0.7000     1.1770    -0.0980 h1         1 17J       0.069450
     26 H8           0.7770     0.7850     1.7970 h1         1 17J       0.066200
     27 H9           1.6800     1.5060     0.4710 h1         1 17J       0.066200
     28 H10         -6.7210    -0.9660     0.2410 ha         1 17J       0.149500
     29 H11         -8.5800     0.6330     0.0220 ha         1 17J       0.132000
     30 H12         -8.1170     3.0260    -0.4100 ha         1 17J       0.130000
     31 H13         -5.7770     3.8060    -0.6150 ha         1 17J       0.132000
     32 H14         -3.9170     2.2060    -0.3980 ha         1 17J       0.149500
     33 C3           5.2920     0.8700    -0.0260 ca         1 17J      -0.047700
     34 N1           3.9610     0.6860     0.3520 ns         1 17J      -0.483100
     35 C4           6.0770     1.8030     0.6420 ca         1 17J      -0.143000
     36 C1           7.3810     2.0100     0.2250 ca         1 17J      -0.224300
     37 C5           7.8640     1.2680    -0.8410 ca         1 17J       0.383200
     38 N2           7.1190     0.3830    -1.4920 nb         1 17J      -0.650000
     39 C7           5.8660     0.1940    -1.1060 ca         1 17J       0.408200
     40 H1           3.5720     1.4400     0.8960 hn         1 17J       0.314500
     41 H15          5.6730     2.3580     1.4800 ha         1 17J       0.132000
     42 H16          8.0140     2.7300     0.7250 ha         1 17J       0.142000
     43 H17          8.8830     1.3990    -1.1870 h4         1 17J       0.022100
     44 H18          5.2870    -0.5170    -1.6810 h4         1 17J       0.038100
@<TRIPOS>BOND
     1     1     2 2   
     2     1     3 1   
     3     1    34 1   
     4     3     4 1   
     5     3     8 1   
     6     4     5 1   
     7     4    20 1   
     8     4    21 1   
     9     5     6 1   
    10     5    22 1   
    11     5    23 1   
    12     6     7 1   
    13     6     9 1   
    14     7     8 1   
    15     7    24 1   
    16     7    25 1   
    17     8    26 1   
    18     8    27 1   
    19     9    10 1   
    20     9    13 2   
    21    10    11 1   
    22    11    12 2   
    23    12    13 1   
    24    12    14 1   
    25    14    15 ar  
    26    14    19 ar  
    27    15    16 ar  
    28    15    28 1   
    29    16    17 ar  
    30    16    29 1   
    31    17    18 ar  
    32    17    30 1   
    33    18    19 ar  
    34    18    31 1   
    35    19    32 1   
    36    33    34 1   
    37    33    35 ar  
    38    33    39 ar  
    39    34    40 1   
    40    35    36 ar  
    41    35    41 1   
    42    36    37 ar  
    43    36    42 1   
    44    37    38 ar  
    45    37    43 1   
    46    38    39 ar  
    47    39    44 1   
@<TRIPOS>SUBSTRUCTURE
     1 17J         1 TEMP              0 ****  ****    0 ROOT
