@<TRIPOS>MOLECULE
17J
   44    47     1     0     0
SMALL
No Charge or Current Charge


@<TRIPOS>ATOM
      1 C2           3.1040    -0.9000     0.2330 c          1 17J       0.663100
      2 O1           3.6810    -1.7320     0.9200 o          1 17J      -0.611100
      3 N10          1.8860    -1.2100    -0.4140 n          1 17J      -0.434800
      4 C15          1.1880    -2.5010    -0.0850 c6         1 17J       0.093000
      5 C14          0.0230    -2.9030    -1.0290 c6         1 17J       0.201300
      6 N13         -0.8580    -1.7410    -1.2920 nh         1 17J      -0.766300
      7 C12         -0.1050    -0.6690    -1.9860 c6         1 17J       0.201300
      8 C11          1.0580    -0.1510    -1.0950 c6         1 17J       0.093000
      9 C16         -1.9610    -1.4650    -0.5100 cc         1 17J       0.713300
     10 S20         -2.6810    -2.6030     0.5990 ss         1 17J      -0.017300
     11 N19         -3.8290    -1.4760     1.0340 nc         1 17J      -0.533100
     12 C18         -3.6220    -0.3520     0.3490 cd         1 17J       0.689500
     13 N17         -2.5630    -0.3030    -0.5450 nd         1 17J      -0.780000
     14 C21         -4.5030     0.8290     0.5410 ca         1 17J      -0.134500
     15 C26         -5.5870     0.7900     1.4530 ca         1 17J      -0.069000
     16 C25         -6.4180     1.9100     1.6300 ca         1 17J      -0.125000
     17 C24         -6.1830     3.0860     0.9030 ca         1 17J      -0.093000
     18 C23         -5.1150     3.1420    -0.0040 ca         1 17J      -0.125000
     19 C22         -4.2810     2.0240    -0.1850 ca         1 17J      -0.069000
     20 H2           1.9190    -3.3220    -0.0750 h1         1 17J       0.066200
     21 H3           0.7890    -2.4190     0.9360 h1         1 17J       0.066200
     22 H4           0.4530    -3.2610    -1.9770 h1         1 17J       0.069450
     23 H5          -0.5240    -3.7550    -0.6000 h1         1 17J       0.069450
     24 H6           0.3210    -1.0630    -2.9210 h1         1 17J       0.069450
     25 H7          -0.7510     0.1730    -2.2740 h1         1 17J       0.069450
     26 H8           0.6280     0.4980    -0.3190 h1         1 17J       0.066200
     27 H9           1.7000     0.4800    -1.7260 h1         1 17J       0.066200
     28 H10         -5.7940    -0.1090     2.0310 ha         1 17J       0.131500
     29 H11         -7.2460     1.8640     2.3340 ha         1 17J       0.114000
     30 H12         -6.8280     3.9520     1.0420 ha         1 17J       0.112000
     31 H13         -4.9300     4.0530    -0.5690 ha         1 17J       0.114000
     32 H14         -3.4590     2.0960    -0.8950 ha         1 17J       0.131500
     33 C3           4.7510     1.0550     0.5090 ca         1 17J      -0.075000
     34 N1           3.5850     0.3880     0.0330 ns         1 17J      -0.157000
     35 C4           4.9520     2.3910     0.1160 ca         1 17J      -0.125000
     36 C1           6.0960     3.0630     0.5760 ca         1 17J      -0.141000
     37 C5           7.0020     2.3880     1.4100 ca         1 17J       0.317900
     38 N2           6.8250     1.1040     1.7980 nb         1 17J      -0.650000
     39 C7           5.7200     0.4530     1.3540 ca         1 17J       0.342900
     40 H1           3.0000     0.9610    -0.5590 hn         1 17J       0.148000
     41 H15          4.2390     2.8980    -0.5300 ha         1 17J       0.114000
     42 H16          6.2850     4.0960     0.2940 ha         1 17J       0.124000
     43 H17          7.8970     2.8880     1.7790 h4         1 17J       0.022100
     44 H18          5.6290    -0.5740     1.6960 h4         1 17J       0.038100
@<TRIPOS>BOND
     1     1     2 2   
     2     1     3 1   
     3     1    34 1   
     4     3     4 1   
     5     3     8 1   
     6     4     5 1   
     7     4    20 1   
     8     4    21 1   
     9     5     6 1   
    10     5    22 1   
    11     5    23 1   
    12     6     7 1   
    13     6     9 1   
    14     7     8 1   
    15     7    24 1   
    16     7    25 1   
    17     8    26 1   
    18     8    27 1   
    19     9    10 1   
    20     9    13 2   
    21    10    11 1   
    22    11    12 2   
    23    12    13 1   
    24    12    14 1   
    25    14    15 ar  
    26    14    19 ar  
    27    15    16 ar  
    28    15    28 1   
    29    16    17 ar  
    30    16    29 1   
    31    17    18 ar  
    32    17    30 1   
    33    18    19 ar  
    34    18    31 1   
    35    19    32 1   
    36    33    34 1   
    37    33    35 ar  
    38    33    39 ar  
    39    34    40 1   
    40    35    36 ar  
    41    35    41 1   
    42    36    37 ar  
    43    36    42 1   
    44    37    38 ar  
    45    37    43 1   
    46    38    39 ar  
    47    39    44 1   
@<TRIPOS>SUBSTRUCTURE
     1 17J         1 TEMP              0 ****  ****    0 ROOT
