@<TRIPOS>MOLECULE
17K
   53    55     1     0     0
SMALL
abcg2


@<TRIPOS>ATOM
      1 CAN         -6.5480     0.5180     0.1720 ca         1 17K      -0.092500
      2 CAJ         -7.7370    -0.0280    -0.2960 ca         1 17K      -0.116000
      3 CAI         -7.7650    -0.6950    -1.5130 ca         1 17K      -0.117000
      4 CAK         -6.5980    -0.8090    -2.2600 ca         1 17K      -0.116000
      5 CAO         -5.4140    -0.2610    -1.7890 ca         1 17K      -0.092500
      6 CAY         -5.3750     0.4070    -0.5680 ca         1 17K      -0.058300
      7 CAS         -4.0910     0.9830    -0.0530 c3         1 17K      -0.105100
      8 CAX         -3.1680    -0.0640     0.5230 c          1 17K       0.607100
      9 OAD         -3.3030    -1.2530     0.3950 o          1 17K      -0.487000
     10 OAV         -2.1690     0.5110     1.1790 os         1 17K      -0.452100
     11 CG1         -1.0590    -0.2720     1.6050 c3         1 17K       0.188600
     12 CB           0.2230     0.5290     1.3790 c3         1 17K       0.033300
     13 SBE          0.3150     1.2220    -0.3500 s4         1 17K       0.452500
     14 OAE         -0.6670     2.3280    -0.4610 o          1 17K      -0.541000
     15 OAF         -0.3160    -0.1210    -1.0720 oh         1 17K      -0.621800
     16 CG2          0.2880     1.7370     2.3050 c3         1 17K      -0.086100
     17 CA           1.4430    -0.4230     1.5140 c3         1 17K       0.086500
     18 C            1.4750    -1.0660     2.9290 c          1 17K       0.723000
     19 OXT          0.8490    -2.1340     3.0560 o          1 17K      -0.704000
     20 O            2.1100    -0.4460     3.7980 o          1 17K      -0.704000
     21 N            2.7160     0.2210     1.2340 nu         1 17K      -0.788200
     22 CBA          3.3360     0.1490     0.0180 cc         1 17K       0.202900
     23 NBD          3.6840    -1.0380    -0.5490 na         1 17K       0.113100
     24 CAQ          3.5360    -2.3150    -0.0490 cc         1 17K      -0.070000
     25 CAM          3.9510    -3.3710    -0.7790 cd         1 17K      -0.175000
     26 CAL          4.5530    -3.1840    -2.0630 cd         1 17K      -0.113000
     27 CAP          4.7470    -1.9290    -2.5380 cc         1 17K      -0.094000
     28 CBB          4.3350    -0.8060    -1.7760 cc         1 17K      -0.140000
     29 CAR          4.4250     0.5500    -1.9480 cd         1 17K      -0.203000
     30 CAZ          3.7990     1.1590    -0.8310 cd         1 17K      -0.338200
     31 CAH          3.6230     2.5740    -0.6430 c          1 17K       0.609100
     32 OAB          3.1170     3.1050     0.3320 o          1 17K      -0.568100
     33 H1          -6.5360     1.0410     1.1210 ha         1 17K       0.114000
     34 H2          -8.6420     0.0720     0.2900 ha         1 17K       0.104000
     35 H3          -8.6900    -1.1200    -1.8800 ha         1 17K       0.101000
     36 H4          -6.6120    -1.3250    -3.2120 ha         1 17K       0.104000
     37 H5          -4.5110    -0.3500    -2.3810 ha         1 17K       0.114000
     38 H6          -3.5340     1.4860    -0.8510 hc         1 17K       0.085700
     39 H7          -4.2760     1.7480     0.7040 hc         1 17K       0.085700
     40 H8          -1.1720    -0.4740     2.6720 h1         1 17K       0.085200
     41 H9          -1.0320    -1.2280     1.0850 h1         1 17K       0.085200
     42 H11          0.0420    -0.1860    -1.9690 ho         1 17K       0.466000
     43 H12          0.3090     1.4020     3.3410 hc         1 17K       0.053367
     44 H13          1.1730     2.3510     2.1370 hc         1 17K       0.053367
     45 H14         -0.5810     2.3790     2.1760 hc         1 17K       0.053367
     46 H15          1.2990    -1.2180     0.7790 h1         1 17K       0.052700
     47 H17          2.8770     1.0880     1.7220 hn         1 17K       0.511000
     48 H18          3.1000    -2.4170     0.9320 h4         1 17K       0.186000
     49 H19          3.8310    -4.3630    -0.3680 ha         1 17K       0.127000
     50 H20          4.8590    -4.0460    -2.6390 ha         1 17K       0.107000
     51 H21          5.2210    -1.7500    -3.4940 ha         1 17K       0.112000
     52 H22          4.8780     1.0540    -2.7880 ha         1 17K       0.193000
     53 H23          3.9880     3.1900    -1.4840 h4         1 17K      -0.026800
@<TRIPOS>BOND
     1     1     2 ar  
     2     1     6 ar  
     3     1    33 1   
     4     2     3 ar  
     5     2    34 1   
     6     3     4 ar  
     7     3    35 1   
     8     4     5 ar  
     9     4    36 1   
    10     5     6 ar  
    11     5    37 1   
    12     6     7 1   
    13     7     8 1   
    14     7    38 1   
    15     7    39 1   
    16     8     9 2   
    17     8    10 1   
    18    10    11 1   
    19    11    12 1   
    20    11    40 1   
    21    11    41 1   
    22    12    13 1   
    23    12    16 1   
    24    12    17 1   
    25    13    14 2   
    26    13    15 1   
    27    15    42 1   
    28    16    43 1   
    29    16    44 1   
    30    16    45 1   
    31    17    18 1   
    32    17    21 1   
    33    17    46 1   
    34    18    19 1   
    35    18    20 1   
    36    21    22 1   
    37    21    47 1   
    38    22    23 1   
    39    22    30 2   
    40    23    24 1   
    41    23    28 1   
    42    24    25 2   
    43    24    48 1   
    44    25    26 1   
    45    25    49 1   
    46    26    27 2   
    47    26    50 1   
    48    27    28 1   
    49    27    51 1   
    50    28    29 2   
    51    29    30 1   
    52    29    52 1   
    53    30    31 1   
    54    31    32 2   
    55    31    53 1   
@<TRIPOS>SUBSTRUCTURE
     1 17K         1 TEMP              0 ****  ****    0 ROOT
