@<TRIPOS>MOLECULE
17K
   53    55     1     0     0
SMALL
No Charge or Current Charge


@<TRIPOS>ATOM
      1 CAN         -6.7190    -0.3670     0.1290 ca         1 17K      -0.092500
      2 CAJ         -7.3950    -0.6520    -1.0700 ca         1 17K      -0.116000
      3 CAI         -6.8940    -0.1730    -2.2920 ca         1 17K      -0.117000
      4 CAK         -5.7160     0.5920    -2.3140 ca         1 17K      -0.116000
      5 CAO         -5.0400     0.8780    -1.1160 ca         1 17K      -0.092500
      6 CAY         -5.5380     0.4020     0.1130 ca         1 17K      -0.058300
      7 CAS         -4.7970     0.7110     1.4090 c3         1 17K      -0.105100
      8 CAX         -3.5970    -0.2200     1.5830 c          1 17K       0.607100
      9 OAD         -3.6900    -1.3960     1.9090 o          1 17K      -0.487000
     10 OAV         -2.4120     0.4220     1.3410 os         1 17K      -0.452100
     11 CG1         -1.1940    -0.3410     1.4520 c3         1 17K       0.188600
     12 CB           0.0490     0.5550     1.1160 c3         1 17K       0.033300
     13 SBE          0.0390     1.0530    -0.7090 s4         1 17K       0.452500
     14 OAE         -1.2800     1.7120    -1.0380 o          1 17K      -0.541000
     15 OAF          0.0170    -0.5440    -1.2730 oh         1 17K      -0.621800
     16 CG2         -0.0050     1.8780     1.9400 c3         1 17K      -0.086100
     17 CA           1.3720    -0.2470     1.4180 c3         1 17K       0.086500
     18 C            1.4980    -0.6730     2.9340 c          1 17K       0.723000
     19 OXT          1.2070    -1.8250     3.2260 o          1 17K      -0.704000
     20 O            1.9800     0.1160     3.7390 o          1 17K      -0.704000
     21 N            2.5970     0.4590     0.9050 nu         1 17K      -0.788200
     22 CBA          3.3000     0.1570    -0.2430 cc         1 17K       0.202900
     23 NBD          3.6500    -1.1040    -0.7350 na         1 17K       0.113100
     24 CAQ          3.5800    -2.2870     0.0140 cc         1 17K      -0.070000
     25 CAM          4.0310    -3.4290    -0.6600 cd         1 17K      -0.175000
     26 CAL          4.6210    -3.4010    -1.9850 cd         1 17K      -0.113000
     27 CAP          4.7870    -2.1920    -2.6180 cc         1 17K      -0.094000
     28 CBB          4.3080    -1.0480    -1.9360 cc         1 17K      -0.140000
     29 CAR          4.3840     0.2770    -2.2630 cd         1 17K      -0.203000
     30 CAZ          3.7740     1.0270    -1.2010 cd         1 17K      -0.338200
     31 CAH          3.6470     2.5040    -1.1170 c          1 17K       0.609100
     32 OAB          3.1200     3.0970    -0.1820 o          1 17K      -0.568100
     33 H1          -7.1130    -0.7450     1.0690 ha         1 17K       0.114000
     34 H2          -8.3060    -1.2460    -1.0520 ha         1 17K       0.104000
     35 H3          -7.4180    -0.3940    -3.2200 ha         1 17K       0.101000
     36 H4          -5.3260     0.9630    -3.2600 ha         1 17K       0.104000
     37 H5          -4.1270     1.4690    -1.1420 ha         1 17K       0.114000
     38 H6          -4.4470     1.7490     1.3850 hc         1 17K       0.085700
     39 H7          -5.4650     0.5750     2.2660 hc         1 17K       0.085700
     40 H8          -1.1010    -0.7200     2.4770 h1         1 17K       0.085200
     41 H9          -1.2210    -1.2160     0.7890 h1         1 17K       0.085200
     42 H11          0.9390    -0.8560    -1.1710 ho         1 17K       0.466000
     43 H12         -0.1000     1.6770     3.0130 hc         1 17K       0.053367
     44 H13          0.8940     2.4840     1.7820 hc         1 17K       0.053367
     45 H14         -0.8650     2.4910     1.6450 hc         1 17K       0.053367
     46 H15          1.2800    -1.1960     0.8760 h1         1 17K       0.052700
     47 H17          2.6920     1.4460     1.1710 hn         1 17K       0.511000
     48 H18          3.1870    -2.2540     1.0200 h4         1 17K       0.186000
     49 H19          3.9570    -4.3850    -0.1510 ha         1 17K       0.127000
     50 H20          4.9650    -4.3180    -2.4550 ha         1 17K       0.107000
     51 H21          5.2740    -2.1020    -3.5850 ha         1 17K       0.112000
     52 H22          4.8480     0.6840    -3.1600 ha         1 17K       0.193000
     53 H23          4.0740     3.0640    -1.9780 h4         1 17K      -0.026800
@<TRIPOS>BOND
     1     1     2 ar  
     2     1     6 ar  
     3     1    33 1   
     4     2     3 ar  
     5     2    34 1   
     6     3     4 ar  
     7     3    35 1   
     8     4     5 ar  
     9     4    36 1   
    10     5     6 ar  
    11     5    37 1   
    12     6     7 1   
    13     7     8 1   
    14     7    38 1   
    15     7    39 1   
    16     8     9 2   
    17     8    10 1   
    18    10    11 1   
    19    11    12 1   
    20    11    40 1   
    21    11    41 1   
    22    12    13 1   
    23    12    16 1   
    24    12    17 1   
    25    13    14 2   
    26    13    15 1   
    27    15    42 1   
    28    16    43 1   
    29    16    44 1   
    30    16    45 1   
    31    17    18 1   
    32    17    21 1   
    33    17    46 1   
    34    18    19 1   
    35    18    20 1   
    36    21    22 1   
    37    21    47 1   
    38    22    23 1   
    39    22    30 2   
    40    23    24 1   
    41    23    28 1   
    42    24    25 2   
    43    24    48 1   
    44    25    26 1   
    45    25    49 1   
    46    26    27 2   
    47    26    50 1   
    48    27    28 1   
    49    27    51 1   
    50    28    29 2   
    51    29    30 1   
    52    29    52 1   
    53    30    31 1   
    54    31    32 2   
    55    31    53 1   
@<TRIPOS>SUBSTRUCTURE
     1 17K         1 TEMP              0 ****  ****    0 ROOT
