@<TRIPOS>MOLECULE
17L
   66    70     1     0     0
SMALL
No Charge or Current Charge


@<TRIPOS>ATOM
      1 C1          -3.2170    -1.8700     1.5310 ce         1 17L      -0.411400
      2 C2          -2.0950    -2.4770     1.0280 cf         1 17L       0.307100
      3 C3          -1.0820    -1.7430     0.3080 cf         1 17L      -0.356000
      4 C4          -1.3680    -0.5280    -0.1600 c2         1 17L       0.179900
      5 C5          -2.7560     0.0750    -0.0560 c5         1 17L      -0.105500
      6 C6          -3.4340    -0.4010     1.2610 c          1 17L       0.646300
      7 O7          -0.4950     0.4050    -0.6470 os         1 17L      -0.186200
      8 C8          -1.0470     1.6480    -0.5600 ca         1 17L       0.185100
      9 C9          -2.3570     1.5500    -0.1430 ca         1 17L      -0.301300
     10 C10         -0.4170     2.8770    -0.8330 ca         1 17L      -0.239600
     11 C11         -1.1970     4.0480    -0.6620 ca         1 17L       0.252100
     12 C12         -2.5390     3.9490    -0.2100 ca         1 17L      -0.283000
     13 C13         -3.1160     2.7030     0.0550 ca         1 17L       0.283100
     14 O14         -4.1130     0.3400     1.9600 o          1 17L      -0.576100
     15 C15         -4.2180    -2.6160     2.3760 c          1 17L       0.610300
     16 C16         -5.6110    -2.0240     2.6210 c3         1 17L      -0.183100
     17 O17         -3.9810    -3.7140     2.8620 o          1 17L      -0.529100
     18 O18         -1.8100    -3.7710     1.2000 oh         1 17L      -0.475100
     19 C19         -3.6330    -0.3400    -1.2670 c3         1 17L      -0.071100
     20 O20         -4.3840     2.6260     0.5260 oh         1 17L      -0.539100
     21 C21          1.0170     2.9360    -1.2950 c          1 17L       0.646700
     22 O22          1.4670     3.8240    -2.0050 o          1 17L      -0.585100
     23 N23          1.8010     1.8760    -0.9160 ns         1 17L      -0.502900
     24 C24          3.1610     1.6180    -1.3770 c3         1 17L       0.147300
     25 C25          3.6810     0.3070    -0.7920 ca         1 17L      -0.068300
     26 C26          4.7160     0.3640     0.1630 ca         1 17L      -0.119000
     27 C27          5.2120    -0.7990     0.7670 ca         1 17L       0.152100
     28 C28          4.6650    -2.0500     0.4220 ca         1 17L      -0.206000
     29 C29          3.6300    -2.1290    -0.5270 ca         1 17L      -0.002000
     30 C30          3.1330    -0.9560    -1.1470 ca         1 17L      -0.052000
     31 C31          3.0890    -3.3880    -0.8510 ca         1 17L      -0.126000
     32 C32          2.0540    -3.4940    -1.7920 ca         1 17L      -0.106000
     33 C33          1.5590    -2.3400    -2.4170 ca         1 17L      -0.127000
     34 C34          2.0950    -1.0800    -2.1020 ca         1 17L      -0.072000
     35 O35         -0.6180     5.2820    -0.8910 os         1 17L      -0.317100
     36 C36         -1.3330     6.5200    -0.7380 c3         1 17L       0.144900
     37 O37          6.2270    -0.6620     1.6920 os         1 17L      -0.346100
     38 C38          6.8040    -1.7900     2.3710 c3         1 17L       0.163600
     39 C39          7.8940    -1.2570     3.3140 c3         1 17L      -0.095100
     40 H3          -0.0620    -2.1250     0.2440 ha         1 17L       0.224000
     41 H12         -3.1470     4.8320    -0.0480 ha         1 17L       0.143000
     42 H16         -5.9740    -1.5160     1.7220 hc         1 17L       0.062700
     43 H16A        -6.3210    -2.7790     2.9790 hc         1 17L       0.062700
     44 H16B        -5.5270    -1.2270     3.3680 hc         1 17L       0.062700
     45 HO18        -0.9910    -3.9530     0.6980 ho         1 17L       0.484000
     46 H19         -3.7960    -1.4240    -1.2940 hc         1 17L       0.058700
     47 H19A        -4.6160     0.1450    -1.2290 hc         1 17L       0.058700
     48 H19B        -3.1590    -0.0540    -2.2140 hc         1 17L       0.058700
     49 HO20        -4.4300     1.7920     1.0580 ho         1 17L       0.519000
     50 HN23         1.3520     1.1700    -0.3460 hn         1 17L       0.319500
     51 H24          3.1720     1.5700    -2.4740 h1         1 17L       0.064700
     52 H24A         3.8030     2.4550    -1.0720 h1         1 17L       0.064700
     53 H26          5.1390     1.3230     0.4490 ha         1 17L       0.129000
     54 H28          5.0290    -2.9650     0.8800 ha         1 17L       0.119000
     55 H31          3.4700    -4.2870    -0.3730 ha         1 17L       0.110000
     56 H32          1.6390    -4.4680    -2.0390 ha         1 17L       0.111000
     57 H33          0.7590    -2.4200    -3.1500 ha         1 17L       0.117000
     58 H34          1.6890    -0.2100    -2.6110 ha         1 17L       0.127000
     59 H36         -2.2010     6.5560    -1.4090 h1         1 17L       0.049367
     60 H36A        -1.6790     6.6480     0.2950 h1         1 17L       0.049367
     61 H36B        -0.6810     7.3670    -0.9840 h1         1 17L       0.049367
     62 H38          6.0440    -2.3240     2.9560 h1         1 17L       0.034700
     63 H38A         7.2530    -2.4890     1.6530 h1         1 17L       0.034700
     64 H39          8.3640    -2.0850     3.8560 hc         1 17L       0.048700
     65 H39A         8.6710    -0.7300     2.7480 hc         1 17L       0.048700
     66 H39B         7.4640    -0.5650     4.0490 hc         1 17L       0.048700
@<TRIPOS>BOND
     1     1     2 2   
     2     1     6 1   
     3     1    15 1   
     4     2     3 1   
     5     2    18 1   
     6     3     4 2   
     7     3    40 1   
     8     4     5 1   
     9     4     7 1   
    10     5     6 1   
    11     5     9 1   
    12     5    19 1   
    13     6    14 2   
    14     7     8 1   
    15     8     9 ar  
    16     8    10 ar  
    17     9    13 ar  
    18    10    11 ar  
    19    10    21 1   
    20    11    12 ar  
    21    11    35 1   
    22    12    13 ar  
    23    12    41 1   
    24    13    20 1   
    25    15    16 1   
    26    15    17 2   
    27    16    42 1   
    28    16    43 1   
    29    16    44 1   
    30    18    45 1   
    31    19    46 1   
    32    19    47 1   
    33    19    48 1   
    34    20    49 1   
    35    21    22 2   
    36    21    23 1   
    37    23    24 1   
    38    23    50 1   
    39    24    25 1   
    40    24    51 1   
    41    24    52 1   
    42    25    26 ar  
    43    25    30 ar  
    44    26    27 ar  
    45    26    53 1   
    46    27    28 ar  
    47    27    37 1   
    48    28    29 ar  
    49    28    54 1   
    50    29    30 ar  
    51    29    31 ar  
    52    30    34 ar  
    53    31    32 ar  
    54    31    55 1   
    55    32    33 ar  
    56    32    56 1   
    57    33    34 ar  
    58    33    57 1   
    59    34    58 1   
    60    35    36 1   
    61    36    59 1   
    62    36    60 1   
    63    36    61 1   
    64    37    38 1   
    65    38    39 1   
    66    38    62 1   
    67    38    63 1   
    68    39    64 1   
    69    39    65 1   
    70    39    66 1   
@<TRIPOS>SUBSTRUCTURE
     1 17L         1 TEMP              0 ****  ****    0 ROOT
