@<TRIPOS>MOLECULE
17L
   66    70     1     0     0
SMALL
abcg2


@<TRIPOS>ATOM
      1 C1          -3.0520    -1.9610     1.4110 ce         1 17L      -0.411400
      2 C2          -1.9200    -2.5510     0.8480 cf         1 17L       0.307100
      3 C3          -0.9570    -1.8340     0.0490 cf         1 17L      -0.356000
      4 C4          -1.2830    -0.5910    -0.3130 c2         1 17L       0.179900
      5 C5          -2.6370    -0.0110    -0.1120 c5         1 17L      -0.105500
      6 C6          -3.3610    -0.5950     1.0810 c          1 17L       0.646300
      7 O7          -0.4470     0.3130    -0.8340 os         1 17L      -0.186200
      8 C8          -1.0250     1.5510    -0.6750 ca         1 17L       0.185100
      9 C9          -2.2950     1.4500    -0.1390 ca         1 17L      -0.301300
     10 C10         -0.4020     2.7230    -1.0310 ca         1 17L      -0.239600
     11 C11         -1.1600     3.8920    -0.8200 ca         1 17L       0.252100
     12 C12         -2.4330     3.8370    -0.2600 ca         1 17L      -0.283000
     13 C13         -3.0180     2.6110     0.0830 ca         1 17L       0.283100
     14 O14         -4.2540     0.0740     1.5970 o          1 17L      -0.576100
     15 C15         -3.9110    -2.7320     2.3420 c          1 17L       0.610300
     16 C16         -4.5460    -2.0200     3.5090 c3         1 17L      -0.183100
     17 O17         -4.0900    -3.9240     2.1860 o          1 17L      -0.529100
     18 O18         -1.6330    -3.7950     1.1550 oh         1 17L      -0.475100
     19 C19         -3.5150    -0.3730    -1.3480 c3         1 17L      -0.071100
     20 O20         -4.2430     2.6060     0.6080 oh         1 17L      -0.539100
     21 C21          0.9590     2.7250    -1.6500 c          1 17L       0.646700
     22 O22          1.1670     3.1450    -2.7770 o          1 17L      -0.585100
     23 N23          1.9010     2.1800    -0.8650 ns         1 17L      -0.502900
     24 C24          3.2490     1.8550    -1.2880 c3         1 17L       0.147300
     25 C25          3.6380     0.5080    -0.7350 ca         1 17L      -0.068300
     26 C26          4.5150     0.4530     0.3090 ca         1 17L      -0.119000
     27 C27          4.8630    -0.7750     0.9270 ca         1 17L       0.152100
     28 C28          4.2960    -1.9410     0.4840 ca         1 17L      -0.206000
     29 C29          3.3840    -1.9180    -0.6000 ca         1 17L      -0.002000
     30 C30          3.0520    -0.6940    -1.2360 ca         1 17L      -0.052000
     31 C31          2.7930    -3.1160    -1.0650 ca         1 17L      -0.126000
     32 C32          1.9240    -3.1060    -2.1240 ca         1 17L      -0.106000
     33 C33          1.6100    -1.8950    -2.7690 ca         1 17L      -0.127000
     34 C34          2.1610    -0.7190    -2.3320 ca         1 17L      -0.072000
     35 O35         -0.5450     5.0320    -1.1510 os         1 17L      -0.317100
     36 C36         -1.2200     6.2630    -0.9540 c3         1 17L       0.144900
     37 O37          5.7420    -0.6710     1.9370 os         1 17L      -0.346100
     38 C38          6.1570    -1.8560     2.6030 c3         1 17L       0.163600
     39 C39          7.1190    -1.4680     3.7000 c3         1 17L      -0.095100
     40 H3           0.0240    -2.2560    -0.1410 ha         1 17L       0.224000
     41 H12         -2.9950     4.7400    -0.0650 ha         1 17L       0.143000
     42 H16         -5.4850    -1.5580     3.2030 hc         1 17L       0.062700
     43 H16A        -4.7670    -2.7480     4.2880 hc         1 17L       0.062700
     44 H16B        -3.9140    -1.2330     3.9140 hc         1 17L       0.062700
     45 HO18        -0.8010    -4.0770     0.7540 ho         1 17L       0.484000
     46 H19         -3.6660    -1.4490    -1.4250 hc         1 17L       0.058700
     47 H19A        -4.4860     0.1130    -1.2560 hc         1 17L       0.058700
     48 H19B        -3.0400    -0.0180    -2.2610 hc         1 17L       0.058700
     49 HO20        -4.4280     1.7150     0.9820 ho         1 17L       0.519000
     50 HN23         1.6560     1.9450     0.0840 hn         1 17L       0.319500
     51 H24          3.2870     1.8750    -2.3770 h1         1 17L       0.064700
     52 H24A         3.9530     2.6120    -0.9340 h1         1 17L       0.064700
     53 H26          4.9560     1.3650     0.6940 ha         1 17L       0.129000
     54 H28          4.5260    -2.8970     0.9370 ha         1 17L       0.119000
     55 H31          3.0430    -4.0480    -0.5740 ha         1 17L       0.110000
     56 H32          1.4810    -4.0310    -2.4700 ha         1 17L       0.111000
     57 H33          0.9270    -1.8930    -3.6080 ha         1 17L       0.117000
     58 H34          1.9060     0.1990    -2.8430 ha         1 17L       0.127000
     59 H36         -2.1410     6.3160    -1.5400 h1         1 17L       0.049367
     60 H36A        -1.4560     6.4310     0.0990 h1         1 17L       0.049367
     61 H36B        -0.5410     7.0400    -1.2930 h1         1 17L       0.049367
     62 H38          5.2890    -2.3770     3.0210 h1         1 17L       0.034700
     63 H38A         6.6380    -2.5360     1.8920 h1         1 17L       0.034700
     64 H39          7.4620    -2.3670     4.2110 hc         1 17L       0.048700
     65 H39A         7.9940    -0.9560     3.3010 hc         1 17L       0.048700
     66 H39B         6.6440    -0.8230     4.4390 hc         1 17L       0.048700
@<TRIPOS>BOND
     1     1     2 2   
     2     1     6 1   
     3     1    15 1   
     4     2     3 1   
     5     2    18 1   
     6     3     4 2   
     7     3    40 1   
     8     4     5 1   
     9     4     7 1   
    10     5     6 1   
    11     5     9 1   
    12     5    19 1   
    13     6    14 2   
    14     7     8 1   
    15     8     9 ar  
    16     8    10 ar  
    17     9    13 ar  
    18    10    11 ar  
    19    10    21 1   
    20    11    12 ar  
    21    11    35 1   
    22    12    13 ar  
    23    12    41 1   
    24    13    20 1   
    25    15    16 1   
    26    15    17 2   
    27    16    42 1   
    28    16    43 1   
    29    16    44 1   
    30    18    45 1   
    31    19    46 1   
    32    19    47 1   
    33    19    48 1   
    34    20    49 1   
    35    21    22 2   
    36    21    23 1   
    37    23    24 1   
    38    23    50 1   
    39    24    25 1   
    40    24    51 1   
    41    24    52 1   
    42    25    26 ar  
    43    25    30 ar  
    44    26    27 ar  
    45    26    53 1   
    46    27    28 ar  
    47    27    37 1   
    48    28    29 ar  
    49    28    54 1   
    50    29    30 ar  
    51    29    31 ar  
    52    30    34 ar  
    53    31    32 ar  
    54    31    55 1   
    55    32    33 ar  
    56    32    56 1   
    57    33    34 ar  
    58    33    57 1   
    59    34    58 1   
    60    35    36 1   
    61    36    59 1   
    62    36    60 1   
    63    36    61 1   
    64    37    38 1   
    65    38    39 1   
    66    38    62 1   
    67    38    63 1   
    68    39    64 1   
    69    39    65 1   
    70    39    66 1   
@<TRIPOS>SUBSTRUCTURE
     1 17L         1 TEMP              0 ****  ****    0 ROOT
