@<TRIPOS>MOLECULE
17M
   43    46     1     0     0
SMALL
No Charge or Current Charge


@<TRIPOS>ATOM
      1 CAR          1.9400     0.4810     1.7980 c3         1 17M      -0.085100
      2 CAB          2.2840     0.4660     0.2570 c5         1 17M      -0.029000
      3 CAP          1.6900     1.7500    -0.3800 c6         1 17M      -0.054400
      4 CAJ          0.1400     1.7710    -0.2660 c6         1 17M      -0.033100
      5 CAF         -0.5630     0.3850    -0.2680 ca         1 17M      -0.049300
      6 CAG         -1.9790     0.3050    -0.1430 ca         1 17M      -0.062000
      7 CAK         -2.7880     1.4650    -0.0400 ca         1 17M      -0.062000
      8 CAN         -4.1840     1.3590     0.0840 ca         1 17M      -0.189000
      9 CAO         -4.7950     0.0980     0.1060 ca         1 17M       0.133100
     10 OAT         -6.1480    -0.0070     0.2250 oh         1 17M      -0.535100
     11 CAL         -4.0120    -1.0580     0.0050 ca         1 17M      -0.147000
     12 CAH         -2.6130    -0.9600    -0.1180 ca         1 17M      -0.001000
     13 CAM         -1.8510    -2.1320    -0.2200 ca         1 17M      -0.112000
     14 CAI         -0.4580    -2.0600    -0.3410 ca         1 17M      -0.091000
     15 CAE          0.2040    -0.8150    -0.3480 ca         1 17M      -0.067300
     16 CAD          1.7280    -0.7520    -0.5420 c5         1 17M      -0.024400
     17 CAQ          2.5050    -1.9390     0.0970 c5         1 17M      -0.063400
     18 CAC          3.9400    -1.3350     0.3290 c5         1 17M      -0.105400
     19 CAA          3.8250     0.2020    -0.0020 c5         1 17M       0.183000
     20 CAS          4.7900     1.0850     0.8290 c3         1 17M      -0.110100
     21 OAU          4.2010     0.4350    -1.3630 oh         1 17M      -0.661000
     22 HAR1         0.8670     0.3880     1.9980 hc         1 17M       0.036700
     23 HAR2         2.4270    -0.3270     2.3540 hc         1 17M       0.036700
     24 HAR3         2.2670     1.4190     2.2610 hc         1 17M       0.036700
     25 HAP1         1.9590     1.7970    -1.4440 hc         1 17M       0.052200
     26 HAP2         2.1190     2.6510     0.0800 hc         1 17M       0.052200
     27 HAJ1        -0.2600     2.3920    -1.0800 hc         1 17M       0.046200
     28 HAJ2        -0.1230     2.2910     0.6660 hc         1 17M       0.046200
     29 HAK         -2.3550     2.4610    -0.0530 ha         1 17M       0.112000
     30 HAN         -4.7840     2.2620     0.1610 ha         1 17M       0.111000
     31 HAT         -6.5240     0.8970     0.2820 ho         1 17M       0.463000
     32 HAL         -4.4930    -2.0320     0.0220 ha         1 17M       0.128000
     33 HAM         -2.3370    -3.1050    -0.2120 ha         1 17M       0.115000
     34 HAI          0.1020    -2.9860    -0.4410 ha         1 17M       0.111000
     35 HAD          1.9490    -0.6830    -1.6140 hc         1 17M       0.076700
     36 HAQ1         2.5320    -2.8140    -0.5620 hc         1 17M       0.044700
     37 HAQ2         2.0580    -2.2660     1.0430 hc         1 17M       0.044700
     38 HAC1         4.6890    -1.8300    -0.2990 hc         1 17M       0.044700
     39 HAC2         4.2600    -1.5030     1.3640 hc         1 17M       0.044700
     40 HAS1         4.6260     2.1500     0.6300 hc         1 17M       0.041033
     41 HAS2         4.6620     0.9250     1.9060 hc         1 17M       0.041033
     42 HAS3         5.8380     0.8590     0.5970 hc         1 17M       0.041033
     43 HAU          5.1380     0.1600    -1.4460 ho         1 17M       0.439000
@<TRIPOS>BOND
     1     1     2 1   
     2     1    22 1   
     3     1    23 1   
     4     1    24 1   
     5     2     3 1   
     6     2    16 1   
     7     2    19 1   
     8     3     4 1   
     9     3    25 1   
    10     3    26 1   
    11     4     5 1   
    12     4    27 1   
    13     4    28 1   
    14     5     6 ar  
    15     5    15 ar  
    16     6     7 ar  
    17     6    12 ar  
    18     7     8 ar  
    19     7    29 1   
    20     8     9 ar  
    21     8    30 1   
    22     9    10 1   
    23     9    11 ar  
    24    10    31 1   
    25    11    12 ar  
    26    11    32 1   
    27    12    13 ar  
    28    13    14 ar  
    29    13    33 1   
    30    14    15 ar  
    31    14    34 1   
    32    15    16 1   
    33    16    17 1   
    34    16    35 1   
    35    17    18 1   
    36    17    36 1   
    37    17    37 1   
    38    18    19 1   
    39    18    38 1   
    40    18    39 1   
    41    19    20 1   
    42    19    21 1   
    43    20    40 1   
    44    20    41 1   
    45    20    42 1   
    46    21    43 1   
@<TRIPOS>SUBSTRUCTURE
     1 17M         1 TEMP              0 ****  ****    0 ROOT
