@<TRIPOS>MOLECULE
17M
   43    46     1     0     0
SMALL
abcg2


@<TRIPOS>ATOM
      1 CAR          1.9960     0.4800     1.7560 c3         1 17M      -0.085100
      2 CAB          2.2890     0.4700     0.2510 c5         1 17M      -0.029000
      3 CAP          1.6720     1.6970    -0.4030 c6         1 17M      -0.054400
      4 CAJ          0.1500     1.7070    -0.2060 c6         1 17M      -0.033100
      5 CAF         -0.5270     0.3550    -0.2370 ca         1 17M      -0.049300
      6 CAG         -1.9490     0.2950    -0.1400 ca         1 17M      -0.062000
      7 CAK         -2.7550     1.4560    -0.0500 ca         1 17M      -0.062000
      8 CAN         -4.1170     1.3820     0.0480 ca         1 17M      -0.189000
      9 CAO         -4.7660     0.1290     0.0610 ca         1 17M       0.133100
     10 OAT         -6.1090     0.0300     0.1540 oh         1 17M      -0.535100
     11 CAL         -4.0210    -1.0200    -0.0220 ca         1 17M      -0.147000
     12 CAH         -2.6140    -0.9600    -0.1220 ca         1 17M      -0.001000
     13 CAM         -1.8390    -2.1400    -0.1970 ca         1 17M      -0.112000
     14 CAI         -0.4790    -2.0630    -0.2820 ca         1 17M      -0.091000
     15 CAE          0.1950    -0.8200    -0.3010 ca         1 17M      -0.067300
     16 CAD          1.6880    -0.7640    -0.4330 c5         1 17M      -0.024400
     17 CAQ          2.5410    -1.9260     0.0780 c5         1 17M      -0.063400
     18 CAC          3.9310    -1.2920     0.3210 c5         1 17M      -0.105400
     19 CAA          3.7980     0.2240     0.0210 c5         1 17M       0.183000
     20 CAS          4.7380     1.0760     0.8630 c3         1 17M      -0.110100
     21 OAU          4.0490     0.4780    -1.3550 oh         1 17M      -0.661000
     22 HAR1         0.9280     0.4110     1.9590 hc         1 17M       0.036700
     23 HAR2         2.4700    -0.3460     2.2860 hc         1 17M       0.036700
     24 HAR3         2.3490     1.4080     2.2110 hc         1 17M       0.036700
     25 HAP1         1.8970     1.6950    -1.4700 hc         1 17M       0.052200
     26 HAP2         2.0870     2.6220     0.0060 hc         1 17M       0.052200
     27 HAJ1        -0.2930     2.3560    -0.9660 hc         1 17M       0.046200
     28 HAJ2        -0.0960     2.1800     0.7510 hc         1 17M       0.046200
     29 HAK         -2.2960     2.4360    -0.0570 ha         1 17M       0.112000
     30 HAN         -4.7010     2.2930     0.1170 ha         1 17M       0.111000
     31 HAT         -6.5060     0.9060     0.2110 ho         1 17M       0.463000
     32 HAL         -4.5120    -1.9870    -0.0090 ha         1 17M       0.128000
     33 HAM         -2.3340    -3.1030    -0.1800 ha         1 17M       0.115000
     34 HAI          0.1040    -2.9740    -0.3370 ha         1 17M       0.111000
     35 HAD          1.9020    -0.6570    -1.5040 hc         1 17M       0.076700
     36 HAQ1         2.5820    -2.7520    -0.6340 hc         1 17M       0.044700
     37 HAQ2         2.1350    -2.3340     1.0070 hc         1 17M       0.044700
     38 HAC1         4.7050    -1.7340    -0.3120 hc         1 17M       0.044700
     39 HAC2         4.2540    -1.4530     1.3510 hc         1 17M       0.044700
     40 HAS1         4.5880     2.1400     0.6720 hc         1 17M       0.041033
     41 HAS2         4.6120     0.9030     1.9310 hc         1 17M       0.041033
     42 HAS3         5.7770     0.8390     0.6220 hc         1 17M       0.041033
     43 HAU          4.9530     0.2070    -1.5460 ho         1 17M       0.439000
@<TRIPOS>BOND
     1     1     2 1   
     2     1    22 1   
     3     1    23 1   
     4     1    24 1   
     5     2     3 1   
     6     2    16 1   
     7     2    19 1   
     8     3     4 1   
     9     3    25 1   
    10     3    26 1   
    11     4     5 1   
    12     4    27 1   
    13     4    28 1   
    14     5     6 ar  
    15     5    15 ar  
    16     6     7 ar  
    17     6    12 ar  
    18     7     8 ar  
    19     7    29 1   
    20     8     9 ar  
    21     8    30 1   
    22     9    10 1   
    23     9    11 ar  
    24    10    31 1   
    25    11    12 ar  
    26    11    32 1   
    27    12    13 ar  
    28    13    14 ar  
    29    13    33 1   
    30    14    15 ar  
    31    14    34 1   
    32    15    16 1   
    33    16    17 1   
    34    16    35 1   
    35    17    18 1   
    36    17    36 1   
    37    17    37 1   
    38    18    19 1   
    39    18    38 1   
    40    18    39 1   
    41    19    20 1   
    42    19    21 1   
    43    20    40 1   
    44    20    41 1   
    45    20    42 1   
    46    21    43 1   
@<TRIPOS>SUBSTRUCTURE
     1 17M         1 TEMP              0 ****  ****    0 ROOT
