@<TRIPOS>MOLECULE
17N
   35    38     1     0     0
SMALL
No Charge or Current Charge


@<TRIPOS>ATOM
      1 CAA          5.5270    -1.7300     0.0710 c3         1 17N       0.158900
      2 OAB         -3.0300    -1.9760    -1.4390 o          1 17N      -0.710500
      3 OAC         -1.2650    -3.0620     1.3160 o          1 17N      -0.713500
      4 OAD         -4.0360    -1.6360     0.4350 o          1 17N      -0.710500
      5 OAE         -0.4500    -3.7090    -0.5690 o          1 17N      -0.713500
      6 CAF          3.5880     2.0810    -0.0790 ca         1 17N      -0.144000
      7 CAG          4.2370     0.8490    -0.0260 ca         1 17N      -0.230000
      8 CAH          2.1890     2.1490    -0.0730 ca         1 17N      -0.110000
      9 CAI         -2.9340     1.0180    -0.0810 ca         1 17N      -0.113000
     10 CAJ          1.3210    -1.4540     0.0770 ca         1 17N      -0.172000
     11 CAK         -1.6140     4.2800     0.3300 c5         1 17N       0.375600
     12 OAL          4.0980    -1.5740     0.0690 os         1 17N      -0.323100
     13 OAM         -2.7660     3.4270     0.0610 os         1 17N      -0.368100
     14 OAN         -0.3980     3.4890     0.1340 os         1 17N      -0.372100
     15 CAO         -3.1270    -1.4150    -0.3560 c          1 17N       0.740600
     16 CAP         -2.2100     2.1900     0.0280 ca         1 17N       0.021100
     17 CAQ          3.4790    -0.3340     0.0240 ca         1 17N       0.120100
     18 CAR         -2.2480    -0.2100    -0.1130 ca         1 17N      -0.044600
     19 CAS         -0.0810    -1.4690     0.0630 ca         1 17N      -0.026600
     20 CAT         -0.8430     2.2020     0.0560 ca         1 17N      -0.010900
     21 CAU          2.0580    -0.2640     0.0250 ca         1 17N      -0.013000
     22 CAV          1.3760     0.9820    -0.0080 ca         1 17N      -0.019000
     23 CAW         -0.8070    -0.2410    -0.0160 ca         1 17N       0.016000
     24 CAX         -0.0670     1.0010     0.0070 ca         1 17N      -0.029000
     25 CAY         -0.7090    -2.8350     0.2500 c          1 17N       0.739600
     26 HAA          5.9720    -1.2360     0.9440 h1         1 17N       0.020367
     27 HAAA         5.7910    -2.7940     0.1110 h1         1 17N       0.020367
     28 HAAB         5.9660    -1.3050    -0.8410 h1         1 17N       0.020367
     29 HAF          4.1720     2.9980    -0.1290 ha         1 17N       0.074000
     30 HAG          5.3230     0.8340    -0.0310 ha         1 17N       0.083000
     31 HAH          1.7850     3.1460    -0.1410 ha         1 17N       0.114000
     32 HAI         -4.0190     1.0530    -0.1560 ha         1 17N       0.134000
     33 HAJ          1.8360    -2.4090     0.1430 ha         1 17N       0.134000
     34 HAK         -1.6160     5.1420    -0.3470 h2         1 17N       0.025700
     35 HAKA        -1.6550     4.6110     1.3750 h2         1 17N       0.025700
@<TRIPOS>BOND
     1     1    12 1   
     2     1    26 1   
     3     1    27 1   
     4     1    28 1   
     5     2    15 1   
     6     3    25 1   
     7     4    15 1   
     8     5    25 1   
     9     6     7 ar  
    10     6     8 ar  
    11     6    29 1   
    12     7    17 ar  
    13     7    30 1   
    14     8    22 ar  
    15     8    31 1   
    16     9    16 ar  
    17     9    18 ar  
    18     9    32 1   
    19    10    19 ar  
    20    10    21 ar  
    21    10    33 1   
    22    11    13 1   
    23    11    14 1   
    24    11    34 1   
    25    11    35 1   
    26    12    17 1   
    27    13    16 1   
    28    14    20 1   
    29    15    18 1   
    30    16    20 ar  
    31    17    21 ar  
    32    18    23 ar  
    33    19    23 ar  
    34    19    25 1   
    35    20    24 ar  
    36    21    22 ar  
    37    22    24 ar  
    38    23    24 ar  
@<TRIPOS>SUBSTRUCTURE
     1 17N         1 TEMP              0 ****  ****    0 ROOT
