@<TRIPOS>MOLECULE
17N
   35    38     1     0     0
SMALL
abcg2


@<TRIPOS>ATOM
      1 CAA          5.4110    -1.6780    -0.1350 c3         1 17N       0.158900
      2 OAB         -2.5230    -2.1620    -1.4170 o          1 17N      -0.710500
      3 OAC         -1.5810    -2.7060     1.4360 o          1 17N      -0.713500
      4 OAD         -4.1780    -1.5240    -0.0650 o          1 17N      -0.710500
      5 OAE         -0.2370    -3.8350     0.0620 o          1 17N      -0.713500
      6 CAF          3.5510     2.0780     0.0300 ca         1 17N      -0.144000
      7 CAG          4.2130     0.8470    -0.0320 ca         1 17N      -0.230000
      8 CAH          2.1810     2.1570     0.0750 ca         1 17N      -0.110000
      9 CAI         -2.9070     0.9810    -0.1040 ca         1 17N      -0.113000
     10 CAJ          1.2860    -1.4650     0.0850 ca         1 17N      -0.172000
     11 CAK         -1.5540     4.2380     0.3280 c5         1 17N       0.375600
     12 OAL          4.0050    -1.5480    -0.0950 os         1 17N      -0.323100
     13 OAM         -2.6640     3.4220     0.0010 os         1 17N      -0.368100
     14 OAN         -0.3940     3.4600     0.0750 os         1 17N      -0.372100
     15 CAO         -3.0330    -1.4330    -0.5460 c          1 17N       0.740600
     16 CAP         -2.1850     2.1500     0.0110 ca         1 17N       0.021100
     17 CAQ          3.4700    -0.3140    -0.0400 ca         1 17N       0.120100
     18 CAR         -2.2080    -0.2170    -0.1410 ca         1 17N      -0.044600
     19 CAS         -0.0690    -1.4730     0.1340 ca         1 17N      -0.026600
     20 CAT         -0.8160     2.1620     0.0630 ca         1 17N      -0.010900
     21 CAU          2.0520    -0.2640     0.0150 ca         1 17N      -0.013000
     22 CAV          1.3970     0.9830     0.0580 ca         1 17N      -0.019000
     23 CAW         -0.7990    -0.2330     0.0120 ca         1 17N       0.016000
     24 CAX         -0.0550     0.9910     0.0590 ca         1 17N      -0.029000
     25 CAY         -0.7120    -2.7920     0.5480 c          1 17N       0.739600
     26 HAA          5.8870    -1.2620     0.7570 h1         1 17N       0.020367
     27 HAAA         5.6200    -2.7440    -0.1780 h1         1 17N       0.020367
     28 HAAB         5.8400    -1.1990    -1.0190 h1         1 17N       0.020367
     29 HAF          4.1380     2.9860     0.0400 ha         1 17N       0.074000
     30 HAG          5.2930     0.8320    -0.0720 ha         1 17N       0.083000
     31 HAH          1.7250     3.1310     0.1170 ha         1 17N       0.114000
     32 HAI         -3.9840     0.9970    -0.2030 ha         1 17N       0.134000
     33 HAJ          1.8090    -2.4080     0.1650 ha         1 17N       0.134000
     34 HAK         -1.5440     5.1280    -0.2990 h2         1 17N       0.025700
     35 HAKA        -1.5910     4.5140     1.3900 h2         1 17N       0.025700
@<TRIPOS>BOND
     1     1    12 1   
     2     1    26 1   
     3     1    27 1   
     4     1    28 1   
     5     2    15 1   
     6     3    25 1   
     7     4    15 1   
     8     5    25 1   
     9     6     7 ar  
    10     6     8 ar  
    11     6    29 1   
    12     7    17 ar  
    13     7    30 1   
    14     8    22 ar  
    15     8    31 1   
    16     9    16 ar  
    17     9    18 ar  
    18     9    32 1   
    19    10    19 ar  
    20    10    21 ar  
    21    10    33 1   
    22    11    13 1   
    23    11    14 1   
    24    11    34 1   
    25    11    35 1   
    26    12    17 1   
    27    13    16 1   
    28    14    20 1   
    29    15    18 1   
    30    16    20 ar  
    31    17    21 ar  
    32    18    23 ar  
    33    19    23 ar  
    34    19    25 1   
    35    20    24 ar  
    36    21    22 ar  
    37    22    24 ar  
    38    23    24 ar  
@<TRIPOS>SUBSTRUCTURE
     1 17N         1 TEMP              0 ****  ****    0 ROOT
