@<TRIPOS>MOLECULE
17O
   30    32     1     0     0
SMALL
abcg2


@<TRIPOS>ATOM
      1 OAC         -5.7740    -0.4710     0.3180 o          1 17O      -0.700000
      2 CAN         -5.0870     0.5300     0.0320 c          1 17O       0.717200
      3 OAB         -5.4760     1.6330    -0.3730 o          1 17O      -0.700000
      4 CAP         -3.5760     0.3510     0.2350 ce         1 17O       0.019800
      5 NAK         -3.2370    -0.9380     0.6020 nu         1 17O      -0.632000
      6 CAE         -2.1120    -1.6600     0.4870 c2         1 17O       0.120000
      7 CAF         -2.7320     1.3800     0.1070 c2         1 17O      -0.158400
      8 SAM         -1.0320     1.3710     0.4820 ss         1 17O      -0.403600
      9 CAS         -0.3690    -0.0590    -0.4820 c3         1 17O       0.153200
     10 CAO         -0.8590    -1.3830     0.0210 ce         1 17O      -0.378400
     11 CAD         -0.0350    -2.5660    -0.0970 c          1 17O       0.602100
     12 OAA          1.0390    -2.6580    -0.6620 o          1 17O      -0.579100
     13 CAQ          1.1140     0.1180    -0.4040 cc         1 17O       0.294300
     14 NAJ          1.7420     0.0200     0.7560 nd         1 17O      -0.472800
     15 NAT          3.0130     0.2480     0.4580 na         1 17O       0.120800
     16 CAI          4.1020     0.3290     1.3950 c5         1 17O       0.242600
     17 SAL          5.5770     0.3450     0.3210 ss         1 17O      -0.472000
     18 CAH          4.6360     0.8200    -1.1820 c5         1 17O       0.159900
     19 CAR          3.2250     0.5130    -0.8390 cd         1 17O      -0.182300
     20 CAG          1.9960     0.4450    -1.4510 cc         1 17O      -0.165000
     21 H2          -4.0700    -1.4690     0.8310 hn         1 17O       0.527000
     22 H5          -3.1380     2.3320    -0.2080 h4         1 17O       0.224000
     23 H6          -0.6860     0.1110    -1.5120 h1         1 17O       0.072700
     24 H8          -0.4830    -3.4620     0.3760 h4         1 17O      -0.053800
     25 H9           4.0310     1.2340     2.0000 h2         1 17O       0.085700
     26 H10          4.7780     1.8770    -1.4090 h1         1 17O       0.080700
     27 H11          5.0030     0.2340    -2.0230 h1         1 17O       0.080700
     28 H12          1.7610     0.5820    -2.4940 ha         1 17O       0.145000
     29 H13          4.1280    -0.5430     2.0450 h2         1 17O       0.085700
     30 H3          -2.2850    -2.6840     0.7970 h4         1 17O       0.165000
@<TRIPOS>BOND
     1     1     2 1   
     2     2     3 1   
     3     2     4 1   
     4     4     5 1   
     5     4     7 2   
     6     5     6 1   
     7     5    21 1   
     8     6    10 2   
     9     6    30 1   
    10     7     8 1   
    11     7    22 1   
    12     8     9 1   
    13     9    10 1   
    14     9    13 1   
    15     9    23 1   
    16    10    11 1   
    17    11    12 2   
    18    11    24 1   
    19    13    14 2   
    20    13    20 1   
    21    14    15 1   
    22    15    16 1   
    23    15    19 1   
    24    16    17 1   
    25    16    25 1   
    26    16    29 1   
    27    17    18 1   
    28    18    19 1   
    29    18    26 1   
    30    18    27 1   
    31    19    20 2   
    32    20    28 1   
@<TRIPOS>SUBSTRUCTURE
     1 17O         1 TEMP              0 ****  ****    0 ROOT
