@<TRIPOS>MOLECULE
17O
   30    32     1     0     0
SMALL
No Charge or Current Charge


@<TRIPOS>ATOM
      1 OAC         -5.7150    -0.6630     0.3780 o          1 17O      -0.700000
      2 CAN         -5.0760     0.2560    -0.1230 c          1 17O       0.717200
      3 OAB         -5.5870     1.0940    -0.8570 o          1 17O      -0.700000
      4 CAP         -3.5800     0.3700     0.2100 ce         1 17O       0.019800
      5 NAK         -3.0450    -0.6150     1.0850 nu         1 17O      -0.632000
      6 CAE         -2.1130    -1.5720     0.6830 c2         1 17O       0.120000
      7 CAF         -2.8300     1.4070    -0.2110 c2         1 17O      -0.158400
      8 SAM         -1.1210     1.5840     0.2670 ss         1 17O      -0.403600
      9 CAS         -0.3510     0.0380    -0.4270 c3         1 17O       0.153200
     10 CAO         -0.9660    -1.3210    -0.0010 ce         1 17O      -0.378400
     11 CAD         -0.1810    -2.5370    -0.3940 c          1 17O       0.602100
     12 OAA          0.8030    -2.5320    -1.1230 o          1 17O      -0.579100
     13 CAQ          1.1540     0.1590    -0.2120 cc         1 17O       0.294300
     14 NAJ          1.7720    -0.0860     0.9480 nd         1 17O      -0.472800
     15 NAT          3.0940     0.1780     0.6210 na         1 17O       0.120800
     16 CAI          4.2410     0.0860     1.5000 c5         1 17O       0.242600
     17 SAL          5.6610     0.6300     0.3270 ss         1 17O      -0.472000
     18 CAH          4.5850     0.9090    -1.2140 c5         1 17O       0.159900
     19 CAR          3.2550     0.5660    -0.6600 cd         1 17O      -0.182300
     20 CAG          2.0330     0.5740    -1.2440 cc         1 17O      -0.165000
     21 H2          -3.7810    -1.0100     1.6810 hn         1 17O       0.527000
     22 H5          -3.2490     2.2060    -0.8240 h4         1 17O       0.224000
     23 H6          -0.5090     0.1030    -1.5120 h1         1 17O       0.072700
     24 H8          -0.5740    -3.5030    -0.0050 h4         1 17O      -0.053800
     25 H9           4.0930     0.7920     2.3240 h2         1 17O       0.085700
     26 H10          4.6200     1.9540    -1.5510 h1         1 17O       0.080700
     27 H11          4.8630     0.2300    -2.0320 h1         1 17O       0.080700
     28 H12          1.7640     0.8350    -2.2620 ha         1 17O       0.145000
     29 H13          4.3420    -0.9590     1.8130 h2         1 17O       0.085700
     30 H3          -2.4050    -2.5940     0.9430 h4         1 17O       0.165000
@<TRIPOS>BOND
     1     1     2 1   
     2     2     3 1   
     3     2     4 1   
     4     4     5 1   
     5     4     7 2   
     6     5     6 1   
     7     5    21 1   
     8     6    10 2   
     9     6    30 1   
    10     7     8 1   
    11     7    22 1   
    12     8     9 1   
    13     9    10 1   
    14     9    13 1   
    15     9    23 1   
    16    10    11 1   
    17    11    12 2   
    18    11    24 1   
    19    13    14 2   
    20    13    20 1   
    21    14    15 1   
    22    15    16 1   
    23    15    19 1   
    24    16    17 1   
    25    16    25 1   
    26    16    29 1   
    27    17    18 1   
    28    18    19 1   
    29    18    26 1   
    30    18    27 1   
    31    19    20 2   
    32    20    28 1   
@<TRIPOS>SUBSTRUCTURE
     1 17O         1 TEMP              0 ****  ****    0 ROOT
