@<TRIPOS>MOLECULE
17P
   53    57     1     0     0
SMALL
No Charge or Current Charge


@<TRIPOS>ATOM
      1 C            0.4350     0.1620    -0.1600 cp         1 17P      -0.061000
      2 C1           1.3530     1.1970    -0.0030 ca         1 17P      -0.016200
      3 N            0.6010     2.3790     0.0380 na         1 17P      -0.201600
      4 C2          -0.7700     2.1310    -0.0880 ca         1 17P       0.107800
      5 C3          -0.9050     0.7580    -0.2130 cp         1 17P      -0.234000
      6 C4          -1.8720     2.9870    -0.1010 ca         1 17P      -0.311600
      7 C5          -3.1250     2.3620    -0.2510 ca         1 17P       0.448900
      8 N6          -3.2920     1.0210    -0.3770 nb         1 17P      -0.793000
      9 C7          -2.2030     0.2360    -0.3530 ca         1 17P       0.697900
     10 C8           0.9010    -1.1650    -0.2340 ca         1 17P      -0.073000
     11 C9           2.2910    -1.4010    -0.1470 ca         1 17P      -0.132000
     12 C10          3.2190    -0.3320     0.0140 ca         1 17P       0.039000
     13 C11          2.7330     0.9960     0.0870 ca         1 17P      -0.122000
     14 C12         -1.7340     4.4680     0.0340 c          1 17P       0.647700
     15 N13         -2.4380    -1.1140    -0.4950 nu         1 17P      -0.910100
     16 C14         -3.7370    -1.7940    -0.3680 c6         1 17P       0.231500
     17 C15         -3.6470    -3.1830    -1.0530 c6         1 17P      -0.091400
     18 C16         -4.9690    -3.9750    -0.8920 c6         1 17P      -0.070900
     19 C17         -5.3530    -4.1240     0.6010 c6         1 17P      -0.077400
     20 C18         -5.4330    -2.7430     1.3000 c6         1 17P      -0.070900
     21 C19         -4.1110    -1.9530     1.1310 c6         1 17P      -0.091400
     22 N20         -2.8500     5.2230     0.0110 nt         1 17P      -0.602000
     23 O           -0.6530     5.0150     0.1630 o          1 17P      -0.652100
     24 C21          4.6650    -0.5750     0.1050 cc         1 17P      -0.157000
     25 C22          5.2260    -1.8180     0.0450 cd         1 17P      -0.157000
     26 N23          6.6010    -1.5880     0.1700 na         1 17P       0.134800
     27 N24          6.9140    -0.2410     0.3060 nd         1 17P      -0.525800
     28 C25          5.7270     0.3310     0.2620 cc         1 17P       0.254900
     29 C26          7.6580    -2.6080     0.1670 c3         1 17P       0.073900
     30 HN           0.9900     3.3090     0.1460 hn         1 17P       0.387000
     31 H5          -4.0450     2.9440    -0.2750 h4         1 17P       0.005100
     32 H8           0.2190    -2.0010    -0.3570 ha         1 17P       0.104000
     33 H9           2.6390    -2.4270    -0.2050 ha         1 17P       0.106000
     34 H11          3.4030     1.8420     0.2090 ha         1 17P       0.121000
     35 HN13        -1.5970    -1.6740    -0.4620 hn         1 17P       0.486000
     36 H14         -4.5290    -1.2220    -0.8770 h1         1 17P       0.085700
     37 H15         -3.4220    -3.0580    -2.1210 hc         1 17P       0.045700
     38 H15A        -2.8200    -3.7640    -0.6230 hc         1 17P       0.045700
     39 H16         -5.7770    -3.4620    -1.4330 hc         1 17P       0.042700
     40 H16A        -4.8680    -4.9680    -1.3510 hc         1 17P       0.042700
     41 H17         -6.3180    -4.6420     0.6890 hc         1 17P       0.040200
     42 H17A        -4.6130    -4.7540     1.1130 hc         1 17P       0.040200
     43 H18         -6.2670    -2.1640     0.8790 hc         1 17P       0.042700
     44 H18A        -5.6540    -2.8780     2.3670 hc         1 17P       0.042700
     45 H19         -3.3040    -2.4710     1.6670 hc         1 17P       0.045700
     46 H19A        -4.2140    -0.9650     1.6000 hc         1 17P       0.045700
     47 HN20        -3.7580     4.7980    -0.0950 hn         1 17P       0.313500
     48 HN2A        -2.7610     6.2240     0.1020 hn         1 17P       0.313500
     49 H22          4.8020    -2.8080    -0.0700 h4         1 17P       0.153000
     50 H25          5.6690     1.4080     0.3480 h4         1 17P       0.039100
     51 H26          8.3460    -2.4200    -0.6660 h1         1 17P       0.056700
     52 H26A         8.2100    -2.5660     1.1130 h1         1 17P       0.056700
     53 H26B         7.2130    -3.6030     0.0510 h1         1 17P       0.056700
@<TRIPOS>BOND
     1     1     2 ar  
     2     1     5 1   
     3     1    10 ar  
     4     2     3 1   
     5     2    13 ar  
     6     3     4 1   
     7     3    30 1   
     8     4     5 ar  
     9     4     6 ar  
    10     5     9 ar  
    11     6     7 ar  
    12     6    14 1   
    13     7     8 ar  
    14     7    31 1   
    15     8     9 ar  
    16     9    15 1   
    17    10    11 ar  
    18    10    32 1   
    19    11    12 ar  
    20    11    33 1   
    21    12    13 ar  
    22    12    24 1   
    23    13    34 1   
    24    14    22 1   
    25    14    23 2   
    26    15    16 1   
    27    15    35 1   
    28    16    17 1   
    29    16    21 1   
    30    16    36 1   
    31    17    18 1   
    32    17    37 1   
    33    17    38 1   
    34    18    19 1   
    35    18    39 1   
    36    18    40 1   
    37    19    20 1   
    38    19    41 1   
    39    19    42 1   
    40    20    21 1   
    41    20    43 1   
    42    20    44 1   
    43    21    45 1   
    44    21    46 1   
    45    22    47 1   
    46    22    48 1   
    47    24    25 2   
    48    24    28 1   
    49    25    26 1   
    50    25    49 1   
    51    26    27 1   
    52    26    29 1   
    53    27    28 2   
    54    28    50 1   
    55    29    51 1   
    56    29    52 1   
    57    29    53 1   
@<TRIPOS>SUBSTRUCTURE
     1 17P         1 TEMP              0 ****  ****    0 ROOT
