@<TRIPOS>MOLECULE
17P
   53    57     1     0     0
SMALL
bcc


@<TRIPOS>ATOM
      1 C            0.4370     0.0390    -0.1860 cp         1 17P      -0.061000
      2 C1           1.3290     1.1210    -0.0360 ca         1 17P      -0.016200
      3 N            0.6010     2.2830     0.0150 na         1 17P      -0.151300
      4 C2          -0.7220     2.0040    -0.0960 ca         1 17P       0.107800
      5 C3          -0.8820     0.6160    -0.2170 cp         1 17P      -0.299300
      6 C4          -1.8320     2.8720    -0.0900 ca         1 17P      -0.376900
      7 C5          -3.0540     2.2310    -0.2400 ca         1 17P       0.514200
      8 N6          -3.2440     0.9230    -0.3460 nb         1 17P      -0.793000
      9 C7          -2.1900     0.1010    -0.3260 ca         1 17P       0.763200
     10 C8           0.9730    -1.2460    -0.2770 ca         1 17P      -0.091000
     11 C9           2.3420    -1.4190    -0.2050 ca         1 17P      -0.150000
     12 C10          3.2230    -0.3340    -0.0430 ca         1 17P       0.039000
     13 C11          2.7030     0.9540     0.0400 ca         1 17P      -0.140000
     14 C12         -1.6530     4.3290     0.0430 c          1 17P       0.714700
     15 N13         -2.4190    -1.2220    -0.4350 nu         1 17P      -0.854900
     16 C14         -3.7340    -1.8300    -0.3390 c6         1 17P       0.231500
     17 C15         -3.7050    -3.2070    -0.9950 c6         1 17P      -0.091400
     18 C16         -5.0640    -3.8940    -0.8970 c6         1 17P      -0.070900
     19 C17         -5.5460    -3.9850     0.5480 c6         1 17P      -0.077400
     20 C18         -5.5720    -2.6090     1.2040 c6         1 17P      -0.070900
     21 C19         -4.2110    -1.9260     1.1110 c6         1 17P      -0.091400
     22 N20         -2.7540     5.0840     0.1940 nt         1 17P      -0.669000
     23 O           -0.5290     4.8300     0.0120 o          1 17P      -0.652100
     24 C21          4.6660    -0.5510     0.0380 cc         1 17P      -0.222300
     25 C22          5.3500    -1.7530     0.1020 cd         1 17P      -0.124300
     26 N23          6.6580    -1.4620     0.1670 na         1 17P       0.113400
     27 N24          6.8870    -0.1540     0.1500 nd         1 17P      -0.525800
     28 C25          5.6980     0.4100     0.0730 cc         1 17P       0.320200
     29 C26          7.7590    -2.3910     0.2470 c3         1 17P       0.044600
     30 HN           0.9670     3.2170     0.0980 hn         1 17P       0.336700
     31 H5          -3.9680     2.8150    -0.2860 h4         1 17P       0.005100
     32 H8           0.3480    -2.1190    -0.4120 ha         1 17P       0.122000
     33 H9           2.7370    -2.4230    -0.2870 ha         1 17P       0.124000
     34 H11          3.3480     1.8140     0.1650 ha         1 17P       0.139000
     35 HN13        -1.6440    -1.8370    -0.2530 hn         1 17P       0.430800
     36 H14         -4.4300    -1.1960    -0.8940 h1         1 17P       0.085700
     37 H15         -3.4020    -3.1100    -2.0410 hc         1 17P       0.045700
     38 H15A        -2.9470    -3.8280    -0.5020 hc         1 17P       0.045700
     39 H16         -5.7960    -3.3330    -1.4880 hc         1 17P       0.042700
     40 H16A        -5.0040    -4.8900    -1.3430 hc         1 17P       0.042700
     41 H17         -6.5370    -4.4420     0.5850 hc         1 17P       0.040200
     42 H17A        -4.8770    -4.6440     1.1120 hc         1 17P       0.040200
     43 H18         -6.3260    -1.9860     0.7120 hc         1 17P       0.042700
     44 H18A        -5.8750    -2.6920     2.2500 hc         1 17P       0.042700
     45 H19         -3.4740    -2.4950     1.6890 hc         1 17P       0.045700
     46 H19A        -4.2570    -0.9250     1.5480 hc         1 17P       0.045700
     47 HN20        -3.6740     4.7050     0.3280 hn         1 17P       0.313500
     48 HN2A        -2.6550     6.0810     0.2990 hn         1 17P       0.313500
     49 H22          5.0020    -2.7730     0.1090 h4         1 17P       0.171000
     50 H25          5.6150     1.4860     0.0410 h4         1 17P       0.039100
     51 H26          8.4160    -2.2750    -0.6120 h1         1 17P       0.056700
     52 H26A         8.3280    -2.2270     1.1600 h1         1 17P       0.056700
     53 H26B         7.3650    -3.4040     0.2550 h1         1 17P       0.056700
@<TRIPOS>BOND
     1     1     2 ar  
     2     1     5 1   
     3     1    10 ar  
     4     2     3 1   
     5     2    13 ar  
     6     3     4 1   
     7     3    30 1   
     8     4     5 ar  
     9     4     6 ar  
    10     5     9 ar  
    11     6     7 ar  
    12     6    14 1   
    13     7     8 ar  
    14     7    31 1   
    15     8     9 ar  
    16     9    15 1   
    17    10    11 ar  
    18    10    32 1   
    19    11    12 ar  
    20    11    33 1   
    21    12    13 ar  
    22    12    24 1   
    23    13    34 1   
    24    14    22 1   
    25    14    23 2   
    26    15    16 1   
    27    15    35 1   
    28    16    17 1   
    29    16    21 1   
    30    16    36 1   
    31    17    18 1   
    32    17    37 1   
    33    17    38 1   
    34    18    19 1   
    35    18    39 1   
    36    18    40 1   
    37    19    20 1   
    38    19    41 1   
    39    19    42 1   
    40    20    21 1   
    41    20    43 1   
    42    20    44 1   
    43    21    45 1   
    44    21    46 1   
    45    22    47 1   
    46    22    48 1   
    47    24    25 2   
    48    24    28 1   
    49    25    26 1   
    50    25    49 1   
    51    26    27 1   
    52    26    29 1   
    53    27    28 2   
    54    28    50 1   
    55    29    51 1   
    56    29    52 1   
    57    29    53 1   
@<TRIPOS>SUBSTRUCTURE
     1 17P         1 TEMP              0 ****  ****    0 ROOT
