@<TRIPOS>MOLECULE
17Q
   60    60     1     0     0
SMALL
No Charge or Current Charge


@<TRIPOS>ATOM
      1 C15          7.0850     1.2510    -0.7120 c3         1 17Q       0.150100
      2 N            7.1430    -0.1600    -0.2600 n3         1 17Q      -0.711600
      3 C14          8.3850    -0.4440     0.4940 c3         1 17Q       0.150100
      4 C13          5.9320    -0.6060     0.4760 c3         1 17Q       0.165800
      5 C12          4.6200    -0.5690    -0.3420 c3         1 17Q      -0.076400
      6 C11          3.4240    -1.1860     0.4150 c3         1 17Q      -0.075400
      7 C10          2.1090    -1.1490    -0.3960 c3         1 17Q      -0.081400
      8 C9           0.9190    -1.7630     0.3640 c3         1 17Q       0.163600
      9 O           -0.2370    -1.6630    -0.4890 os         1 17Q      -0.464000
     10 C8          -1.4680    -2.1860     0.0530 c3         1 17Q       0.180300
     11 C16         -2.4620    -2.3860    -1.1390 c3         1 17Q      -0.081900
     12 C17         -2.9430    -1.1270    -1.9170 c3         1 17Q      -0.069900
     13 C18         -4.2130    -0.4550    -1.3280 c3         1 17Q      -0.078900
     14 C19         -4.2490     1.0830    -1.5010 c3         1 17Q      -0.072900
     15 C1          -5.3620     1.7830    -0.6750 c3         1 17Q      -0.070400
     16 C7          -1.9660    -1.2980     1.2400 c3         1 17Q      -0.081900
     17 C6          -1.7840     0.2400     1.0830 c3         1 17Q      -0.069900
     18 C5          -2.9090     1.0790     1.7370 c3         1 17Q      -0.078900
     19 C4          -2.8730     2.5840     1.3570 c3         1 17Q      -0.072900
     20 C3          -4.2690     3.2560     1.2460 c3         1 17Q      -0.070400
     21 C2          -4.9820     3.1910    -0.1410 c3         1 17Q      -0.071400
     22 H151         8.0080     1.5260    -1.2400 h1         1 17Q       0.029533
     23 H152         6.2510     1.4130    -1.4060 h1         1 17Q       0.029533
     24 H153         6.9640     1.9320     0.1420 h1         1 17Q       0.029533
     25 H141         8.4170     0.1330     1.4280 h1         1 17Q       0.029533
     26 H142         8.4520    -1.5110     0.7450 h1         1 17Q       0.029533
     27 H143         9.2700    -0.1830    -0.1020 h1         1 17Q       0.029533
     28 H131         6.0810    -1.6420     0.8100 h1         1 17Q       0.027700
     29 H132         5.7990     0.0030     1.3810 h1         1 17Q       0.027700
     30 H121         4.3750     0.4680    -0.6000 hc         1 17Q       0.047700
     31 H122         4.7710    -1.1110    -1.2840 hc         1 17Q       0.047700
     32 H111         3.6580    -2.2270     0.6720 hc         1 17Q       0.036700
     33 H112         3.2790    -0.6470     1.3600 hc         1 17Q       0.036700
     34 H101         1.8710    -0.1090    -0.6500 hc         1 17Q       0.051700
     35 H102         2.2490    -1.6900    -1.3390 hc         1 17Q       0.051700
     36 H91C         1.1350    -2.8140     0.6000 h1         1 17Q       0.019700
     37 H92C         0.7720    -1.2190     1.3050 h1         1 17Q       0.019700
     38 H8          -1.2860    -3.1910     0.4590 h1         1 17Q       0.022700
     39 H161        -1.9700    -3.0530    -1.8580 hc         1 17Q       0.041700
     40 H162        -3.3370    -2.9420    -0.7810 hc         1 17Q       0.041700
     41 H71C        -3.0200    -1.5380     1.4230 hc         1 17Q       0.041700
     42 H72C        -1.4470    -1.6110     2.1540 hc         1 17Q       0.041700
     43 H171        -2.1170    -0.4110    -1.9940 hc         1 17Q       0.045200
     44 H172        -3.1690    -1.4190    -2.9490 hc         1 17Q       0.045200
     45 H181        -5.1030    -0.8940    -1.7960 hc         1 17Q       0.036450
     46 H182        -4.2930    -0.6990    -0.2660 hc         1 17Q       0.036450
     47 H191        -3.2770     1.4990    -1.2270 hc         1 17Q       0.038200
     48 H192        -4.3820     1.3250    -2.5630 hc         1 17Q       0.038200
     49 H11C        -6.2460     1.8790    -1.3190 hc         1 17Q       0.034950
     50 H12C        -5.6810     1.1560     0.1660 hc         1 17Q       0.034950
     51 H21C        -4.3730     3.7140    -0.8900 hc         1 17Q       0.035200
     52 H22C        -5.9080     3.7730    -0.0540 hc         1 17Q       0.035200
     53 H61C        -0.8200     0.5380     1.5130 hc         1 17Q       0.045200
     54 H62C        -1.7190     0.4950     0.0230 hc         1 17Q       0.045200
     55 H51C        -3.8790     0.6570     1.4610 hc         1 17Q       0.036450
     56 H52C        -2.8480     0.9800     2.8270 hc         1 17Q       0.036450
     57 H41C        -2.2910     3.1080     2.1260 hc         1 17Q       0.038200
     58 H42C        -2.3260     2.7410     0.4200 hc         1 17Q       0.038200
     59 H31C        -4.9340     2.8480     2.0180 hc         1 17Q       0.034950
     60 H32C        -4.1450     4.3180     1.4940 hc         1 17Q       0.034950
@<TRIPOS>BOND
     1     1     2 1   
     2     1    22 1   
     3     1    23 1   
     4     1    24 1   
     5     2     3 1   
     6     2     4 1   
     7     3    25 1   
     8     3    26 1   
     9     3    27 1   
    10     4     5 1   
    11     4    28 1   
    12     4    29 1   
    13     5     6 1   
    14     5    30 1   
    15     5    31 1   
    16     6     7 1   
    17     6    32 1   
    18     6    33 1   
    19     7     8 1   
    20     7    34 1   
    21     7    35 1   
    22     8     9 1   
    23     8    36 1   
    24     8    37 1   
    25     9    10 1   
    26    10    11 1   
    27    10    16 1   
    28    10    38 1   
    29    11    12 1   
    30    11    39 1   
    31    11    40 1   
    32    12    13 1   
    33    12    43 1   
    34    12    44 1   
    35    13    14 1   
    36    13    45 1   
    37    13    46 1   
    38    14    15 1   
    39    14    47 1   
    40    14    48 1   
    41    15    21 1   
    42    15    49 1   
    43    15    50 1   
    44    16    17 1   
    45    16    41 1   
    46    16    42 1   
    47    17    18 1   
    48    17    53 1   
    49    17    54 1   
    50    18    19 1   
    51    18    55 1   
    52    18    56 1   
    53    19    20 1   
    54    19    57 1   
    55    19    58 1   
    56    20    21 1   
    57    20    59 1   
    58    20    60 1   
    59    21    51 1   
    60    21    52 1   
@<TRIPOS>SUBSTRUCTURE
     1 17Q         1 TEMP              0 ****  ****    0 ROOT
