@<TRIPOS>MOLECULE
17Q
   60    60     1     0     0
SMALL
abcg2


@<TRIPOS>ATOM
      1 C15          7.3700     0.7860    -0.8720 c3         1 17Q       0.150100
      2 N            7.2320    -0.4810    -0.1860 n3         1 17Q      -0.711600
      3 C14          8.3420    -0.6860     0.7190 c3         1 17Q       0.150100
      4 C13          5.9660    -0.6020     0.5140 c3         1 17Q       0.165800
      5 C12          4.7540    -0.6790    -0.4050 c3         1 17Q      -0.076400
      6 C11          3.4700    -0.9380     0.3750 c3         1 17Q      -0.075400
      7 C10          2.2400    -1.0040    -0.5210 c3         1 17Q      -0.081400
      8 C9           0.9830    -1.3280     0.2640 c3         1 17Q       0.163600
      9 O           -0.1200    -1.3310    -0.6100 os         1 17Q      -0.464000
     10 C8          -1.2900    -1.9310    -0.0860 c3         1 17Q       0.180300
     11 C16         -2.2510    -2.1610    -1.2570 c3         1 17Q      -0.081900
     12 C17         -2.8640    -0.9390    -1.9540 c3         1 17Q      -0.069900
     13 C18         -4.1400    -0.4300    -1.2740 c3         1 17Q      -0.078900
     14 C19         -4.3670     1.0730    -1.3900 c3         1 17Q      -0.072900
     15 C1          -5.5370     1.5870    -0.5370 c3         1 17Q      -0.070400
     16 C7          -1.8530    -1.1610     1.1200 c3         1 17Q      -0.081900
     17 C6          -1.8700     0.3650     0.9780 c3         1 17Q      -0.069900
     18 C5          -3.0350     1.0370     1.6960 c3         1 17Q      -0.078900
     19 C4          -3.1350     2.5450     1.4270 c3         1 17Q      -0.072900
     20 C3          -4.5720     3.0800     1.3890 c3         1 17Q      -0.070400
     21 C2          -5.3230     2.9860     0.0540 c3         1 17Q      -0.071400
     22 H151         8.3320     0.8240    -1.3870 h1         1 17Q       0.029533
     23 H152         6.5950     0.9120    -1.6270 h1         1 17Q       0.029533
     24 H153         7.3220     1.6530    -0.1930 h1         1 17Q       0.029533
     25 H141         8.3980     0.0690     1.5200 h1         1 17Q       0.029533
     26 H142         8.2680    -1.6670     1.1930 h1         1 17Q       0.029533
     27 H143         9.2850    -0.6540     0.1700 h1         1 17Q       0.029533
     28 H131         6.0030    -1.5220     1.1060 h1         1 17Q       0.027700
     29 H132         5.8240     0.2220     1.2370 h1         1 17Q       0.027700
     30 H121         4.6410     0.2470    -0.9770 hc         1 17Q       0.047700
     31 H122         4.9090    -1.4800    -1.1340 hc         1 17Q       0.047700
     32 H111         3.5670    -1.8750     0.9330 hc         1 17Q       0.036700
     33 H112         3.3330    -0.1510     1.1240 hc         1 17Q       0.036700
     34 H101         2.1130    -0.0480    -1.0390 hc         1 17Q       0.051700
     35 H102         2.3890    -1.7650    -1.2930 hc         1 17Q       0.051700
     36 H91C         1.0920    -2.3100     0.7480 h1         1 17Q       0.019700
     37 H92C         0.8510    -0.5920     1.0690 h1         1 17Q       0.019700
     38 H8          -1.0300    -2.9380     0.2800 h1         1 17Q       0.022700
     39 H161        -1.7010    -2.7580    -1.9910 hc         1 17Q       0.041700
     40 H162        -3.0570    -2.8080    -0.8980 hc         1 17Q       0.041700
     41 H71C        -2.8650    -1.5340     1.3050 hc         1 17Q       0.041700
     42 H72C        -1.2850    -1.4350     2.0140 hc         1 17Q       0.041700
     43 H171        -2.1220    -0.1380    -2.0230 hc         1 17Q       0.045200
     44 H172        -3.0910    -1.2070    -2.9890 hc         1 17Q       0.045200
     45 H181        -5.0060    -0.9720    -1.6670 hc         1 17Q       0.036450
     46 H182        -4.1030    -0.6840    -0.2130 hc         1 17Q       0.036450
     47 H191        -3.4460     1.5810    -1.0940 hc         1 17Q       0.038200
     48 H192        -4.5240     1.3520    -2.4370 hc         1 17Q       0.038200
     49 H11C        -6.4440     1.5960    -1.1480 hc         1 17Q       0.034950
     50 H12C        -5.7440     0.8800     0.2730 hc         1 17Q       0.034950
     51 H21C        -4.8160     3.6140    -0.6880 hc         1 17Q       0.035200
     52 H22C        -6.3000     3.4520     0.2110 hc         1 17Q       0.035200
     53 H61C        -0.9260     0.7830     1.3410 hc         1 17Q       0.045200
     54 H62C        -1.9150     0.6430    -0.0740 hc         1 17Q       0.045200
     55 H51C        -3.9620     0.5470     1.3860 hc         1 17Q       0.036450
     56 H52C        -2.9660     0.8600     2.7740 hc         1 17Q       0.036450
     57 H41C        -2.5740     3.0820     2.1960 hc         1 17Q       0.038200
     58 H42C        -2.6380     2.7910     0.4830 hc         1 17Q       0.038200
     59 H31C        -5.1590     2.5770     2.1660 hc         1 17Q       0.034950
     60 H32C        -4.5610     4.1370     1.6710 hc         1 17Q       0.034950
@<TRIPOS>BOND
     1     1     2 1   
     2     1    22 1   
     3     1    23 1   
     4     1    24 1   
     5     2     3 1   
     6     2     4 1   
     7     3    25 1   
     8     3    26 1   
     9     3    27 1   
    10     4     5 1   
    11     4    28 1   
    12     4    29 1   
    13     5     6 1   
    14     5    30 1   
    15     5    31 1   
    16     6     7 1   
    17     6    32 1   
    18     6    33 1   
    19     7     8 1   
    20     7    34 1   
    21     7    35 1   
    22     8     9 1   
    23     8    36 1   
    24     8    37 1   
    25     9    10 1   
    26    10    11 1   
    27    10    16 1   
    28    10    38 1   
    29    11    12 1   
    30    11    39 1   
    31    11    40 1   
    32    12    13 1   
    33    12    43 1   
    34    12    44 1   
    35    13    14 1   
    36    13    45 1   
    37    13    46 1   
    38    14    15 1   
    39    14    47 1   
    40    14    48 1   
    41    15    21 1   
    42    15    49 1   
    43    15    50 1   
    44    16    17 1   
    45    16    41 1   
    46    16    42 1   
    47    17    18 1   
    48    17    53 1   
    49    17    54 1   
    50    18    19 1   
    51    18    55 1   
    52    18    56 1   
    53    19    20 1   
    54    19    57 1   
    55    19    58 1   
    56    20    21 1   
    57    20    59 1   
    58    20    60 1   
    59    21    51 1   
    60    21    52 1   
@<TRIPOS>SUBSTRUCTURE
     1 17Q         1 TEMP              0 ****  ****    0 ROOT
