@<TRIPOS>MOLECULE
17R
   51    54     1     0     0
SMALL
abcg2


@<TRIPOS>ATOM
      1 C1          -0.4770     0.8650     0.9300 c3         1 17R      -0.117100
      2 C2          -0.0280    -0.5360     1.3280 c6         1 17R       0.232500
      3 C3           1.4840    -0.6290     1.5080 c6         1 17R       0.179800
      4 N1           2.1550    -0.4580     0.2300 nh         1 17R      -0.773400
      5 C4           1.7800    -1.5140    -0.6990 c6         1 17R       0.178800
      6 C5           0.2810    -1.4970    -0.9290 c6         1 17R       0.208800
      7 N2          -0.4000    -1.5790     0.3600 n3         1 17R      -0.763500
      8 S1          -1.8570    -2.3240     0.4320 sy         1 17R       1.174600
      9 O1          -1.7330    -3.5870    -0.2760 o          1 17R      -0.533500
     10 O2          -2.2820    -2.3140     1.8230 o          1 17R      -0.533500
     11 C6          -3.0070    -1.3320    -0.4940 ca         1 17R      -0.282500
     12 C7          -3.0960    -1.4980    -1.8700 ca         1 17R      -0.019000
     13 C8          -3.9610    -0.6830    -2.5840 ca         1 17R      -0.113000
     14 C9          -4.7200     0.2790    -1.9390 ca         1 17R      -0.078000
     15 C10         -4.6310     0.4110    -0.5590 ca         1 17R      -0.002200
     16 C11         -3.7760    -0.3950     0.1770 ca         1 17R      -0.003000
     17 N3          -5.4140     1.3720     0.1080 na         1 17R       0.028500
     18 C12         -6.5910     1.9080    -0.2590 cc         1 17R       0.425400
     19 N4          -6.9930     2.7600     0.6490 nd         1 17R      -0.691000
     20 C13         -6.0090     2.7070     1.5750 cd         1 17R       0.527900
     21 N5          -5.0370     1.8800     1.2890 nc         1 17R      -0.532800
     22 C14          3.5560    -0.2680     0.3200 ca         1 17R       0.267000
     23 C15          4.3730    -1.1640     1.0040 ca         1 17R      -0.120000
     24 C16          5.7440    -0.9830     1.0770 ca         1 17R      -0.115000
     25 C17          6.2930     0.1120     0.4430 ca         1 17R       0.165000
     26 C18          5.5230     1.0260    -0.2460 ca         1 17R      -0.105000
     27 C19          4.1480     0.8350    -0.3030 ca         1 17R      -0.153300
     28 C20          3.2900     1.8450    -1.0100 c3         1 17R       0.370300
     29 F1           4.0240     2.8190    -1.5640 f          1 17R      -0.111667
     30 F2           2.5710     1.3090    -2.0030 f          1 17R      -0.111667
     31 F3           2.4360     2.4450    -0.1750 f          1 17R      -0.111667
     32 F4           7.6190     0.3020     0.4990 f          1 17R      -0.169000
     33 H1          -0.0380     1.1830    -0.0130 hc         1 17R       0.051700
     34 H1A         -1.5610     0.9350     0.8480 hc         1 17R       0.051700
     35 H1B         -0.1630     1.5750     1.6950 hc         1 17R       0.051700
     36 H2          -0.4740    -0.7980     2.2870 h1         1 17R       0.087700
     37 H3           1.8040     0.1600     2.1910 h1         1 17R       0.049200
     38 H3A          1.7220    -1.5950     1.9780 h1         1 17R       0.049200
     39 H4           2.2800    -1.3570    -1.6550 h1         1 17R       0.050700
     40 H4A          2.0750    -2.5070    -0.3290 h1         1 17R       0.050700
     41 H5          -0.0080    -0.5910    -1.4700 h1         1 17R       0.061700
     42 H5A          0.0210    -2.3550    -1.5460 h1         1 17R       0.061700
     43 H7          -2.5130    -2.2480    -2.3870 ha         1 17R       0.138000
     44 H8          -4.0380    -0.7920    -3.6570 ha         1 17R       0.126000
     45 H9          -5.3660     0.9240    -2.5180 ha         1 17R       0.125000
     46 H11         -3.7210    -0.2900     1.2520 ha         1 17R       0.166000
     47 H12         -7.1120     1.6400    -1.1650 h5         1 17R       0.068100
     48 H13         -6.0110     3.2950     2.4810 h5         1 17R       0.069100
     49 H15          3.9310    -2.0240     1.4910 ha         1 17R       0.128000
     50 H16          6.3710    -1.6840     1.6120 ha         1 17R       0.140000
     51 H18          6.0040     1.8720    -0.7180 ha         1 17R       0.153000
@<TRIPOS>BOND
     1     1     2 1   
     2     1    33 1   
     3     1    34 1   
     4     1    35 1   
     5     2     3 1   
     6     2     7 1   
     7     2    36 1   
     8     3     4 1   
     9     3    37 1   
    10     3    38 1   
    11     4     5 1   
    12     4    22 1   
    13     5     6 1   
    14     5    39 1   
    15     5    40 1   
    16     6     7 1   
    17     6    41 1   
    18     6    42 1   
    19     7     8 1   
    20     8     9 2   
    21     8    10 2   
    22     8    11 1   
    23    11    12 ar  
    24    11    16 ar  
    25    12    13 ar  
    26    12    43 1   
    27    13    14 ar  
    28    13    44 1   
    29    14    15 ar  
    30    14    45 1   
    31    15    16 ar  
    32    15    17 1   
    33    16    46 1   
    34    17    18 1   
    35    17    21 1   
    36    18    19 2   
    37    18    47 1   
    38    19    20 1   
    39    20    21 2   
    40    20    48 1   
    41    22    23 ar  
    42    22    27 ar  
    43    23    24 ar  
    44    23    49 1   
    45    24    25 ar  
    46    24    50 1   
    47    25    26 ar  
    48    25    32 1   
    49    26    27 ar  
    50    26    51 1   
    51    27    28 1   
    52    28    29 1   
    53    28    30 1   
    54    28    31 1   
@<TRIPOS>SUBSTRUCTURE
     1 17R         1 TEMP              0 ****  ****    0 ROOT
