@<TRIPOS>MOLECULE
17R
   51    54     1     0     0
SMALL
No Charge or Current Charge


@<TRIPOS>ATOM
      1 C1          -0.4150     0.1800     2.1630 c3         1 17R      -0.117100
      2 C2           0.1270    -1.2550     1.8720 c6         1 17R       0.232500
      3 C3           1.6790    -1.2050     1.6540 c6         1 17R       0.179800
      4 N1           2.0650    -0.5530     0.3620 nh         1 17R      -0.773400
      5 C4           1.3480    -1.1500    -0.8070 c6         1 17R       0.178800
      6 C5          -0.1950    -1.2740    -0.5910 c6         1 17R       0.208800
      7 N2          -0.5340    -1.9250     0.7090 n3         1 17R      -0.763500
      8 S1          -2.1110    -2.5560     0.9020 sy         1 17R       1.174600
      9 O1          -2.0310    -3.9780     0.5510 o          1 17R      -0.533500
     10 O2          -2.5860    -2.1180     2.2180 o          1 17R      -0.533500
     11 C6          -3.0680    -1.6570    -0.3370 ca         1 17R      -0.282500
     12 C7          -3.3550    -2.2510    -1.5830 ca         1 17R      -0.019000
     13 C8          -4.0860    -1.5360    -2.5460 ca         1 17R      -0.113000
     14 C9          -4.5350    -0.2330    -2.2730 ca         1 17R      -0.078000
     15 C10         -4.2590     0.3700    -1.0270 ca         1 17R      -0.002200
     16 C11         -3.5240    -0.3510    -0.0620 ca         1 17R      -0.003000
     17 N3          -4.7060     1.6680    -0.7490 na         1 17R       0.028500
     18 C12         -5.9000     2.1960    -1.1650 cc         1 17R       0.425400
     19 N4          -5.9320     3.4510    -0.7440 nd         1 17R      -0.691000
     20 C13         -4.7160     3.6270    -0.0850 cd         1 17R       0.527900
     21 N5          -3.9340     2.5520    -0.0750 nc         1 17R      -0.532800
     22 C14          3.3940    -0.1260     0.1840 ca         1 17R       0.267000
     23 C15          4.4030    -1.0990     0.0480 ca         1 17R      -0.120000
     24 C16          5.7440    -0.7250    -0.1340 ca         1 17R      -0.115000
     25 C17          6.0820     0.6320    -0.1800 ca         1 17R       0.165000
     26 C18          5.0900     1.6150    -0.0460 ca         1 17R      -0.105000
     27 C19          3.7310     1.2510     0.1360 ca         1 17R      -0.153300
     28 C20          2.6510     2.3340     0.2920 c3         1 17R       0.370300
     29 F1           3.1400     3.5870     0.1410 f          1 17R      -0.111667
     30 F2           1.6590     2.2070    -0.6210 f          1 17R      -0.111667
     31 F3           2.0780     2.2980     1.5170 f          1 17R      -0.111667
     32 F4           7.3710     0.9980    -0.3530 f          1 17R      -0.169000
     33 H1          -0.2940     0.8480     1.3040 hc         1 17R       0.051700
     34 H1A         -1.4740     0.1770     2.4350 hc         1 17R       0.051700
     35 H1B          0.1250     0.6310     3.0040 hc         1 17R       0.051700
     36 H2          -0.0380    -1.8500     2.7830 h1         1 17R       0.087700
     37 H3           2.1400    -0.6710     2.4980 h1         1 17R       0.049200
     38 H3A          2.0640    -2.2340     1.6740 h1         1 17R       0.049200
     39 H4           1.5250    -0.5460    -1.7080 h1         1 17R       0.050700
     40 H4A          1.7480    -2.1550    -1.0060 h1         1 17R       0.050700
     41 H5          -0.6450    -0.2730    -0.6550 h1         1 17R       0.061700
     42 H5A         -0.5950    -1.8580    -1.4320 h1         1 17R       0.061700
     43 H7          -3.0100    -3.2580    -1.8130 ha         1 17R       0.138000
     44 H8          -4.3010    -1.9930    -3.5090 ha         1 17R       0.126000
     45 H9          -5.0900     0.3060    -3.0380 ha         1 17R       0.125000
     46 H11         -3.3100     0.1090     0.9000 ha         1 17R       0.166000
     47 H12         -6.6530     1.6520    -1.7230 h5         1 17R       0.068100
     48 H13         -4.4470     4.5730     0.3730 h5         1 17R       0.069100
     49 H15          4.1400    -2.1530     0.0840 ha         1 17R       0.128000
     50 H16          6.5180    -1.4820    -0.2380 ha         1 17R       0.140000
     51 H18          5.3920     2.6590    -0.0840 ha         1 17R       0.153000
@<TRIPOS>BOND
     1     1     2 1   
     2     1    33 1   
     3     1    34 1   
     4     1    35 1   
     5     2     3 1   
     6     2     7 1   
     7     2    36 1   
     8     3     4 1   
     9     3    37 1   
    10     3    38 1   
    11     4     5 1   
    12     4    22 1   
    13     5     6 1   
    14     5    39 1   
    15     5    40 1   
    16     6     7 1   
    17     6    41 1   
    18     6    42 1   
    19     7     8 1   
    20     8     9 2   
    21     8    10 2   
    22     8    11 1   
    23    11    12 ar  
    24    11    16 ar  
    25    12    13 ar  
    26    12    43 1   
    27    13    14 ar  
    28    13    44 1   
    29    14    15 ar  
    30    14    45 1   
    31    15    16 ar  
    32    15    17 1   
    33    16    46 1   
    34    17    18 1   
    35    17    21 1   
    36    18    19 2   
    37    18    47 1   
    38    19    20 1   
    39    20    21 2   
    40    20    48 1   
    41    22    23 ar  
    42    22    27 ar  
    43    23    24 ar  
    44    23    49 1   
    45    24    25 ar  
    46    24    50 1   
    47    25    26 ar  
    48    25    32 1   
    49    26    27 ar  
    50    26    51 1   
    51    27    28 1   
    52    28    29 1   
    53    28    30 1   
    54    28    31 1   
@<TRIPOS>SUBSTRUCTURE
     1 17R         1 TEMP              0 ****  ****    0 ROOT
