@<TRIPOS>MOLECULE
17S
   46    47     1     0     0
SMALL
No Charge or Current Charge


@<TRIPOS>ATOM
      1 C1          -2.1210     0.4240    -0.4530 c6         1 17S       0.300700
      2 N1          -0.8880     1.1380    -0.1400 ns         1 17S      -0.433900
      3 S1          -1.9050     3.6000    -0.4770 s          1 17S      -0.627400
      4 C2          -1.8290    -1.0150    -0.9980 c6         1 17S       0.100300
      5 N2           0.5150     2.8680     0.4060 ns         1 17S      -0.227900
      6 O2          -1.1200    -0.9990    -2.2600 oh         1 17S      -0.713000
      7 C3          -3.1780    -1.7710    -1.1710 c6         1 17S       0.139300
      8 N3           1.5440     1.9930     0.7420 n2         1 17S      -0.497300
      9 O3          -2.9380    -3.1090    -1.6380 oh         1 17S      -0.666000
     10 C4          -3.9720    -1.7840     0.1660 c6         1 17S       0.142300
     11 O4          -5.2310    -2.4570    -0.0250 oh         1 17S      -0.714000
     12 C5          -4.1520    -0.3180     0.6710 c6         1 17S       0.179300
     13 O5          -2.8520     0.3220     0.7870 os         1 17S      -0.454000
     14 C6          -4.8630    -0.2530     2.0640 c3         1 17S       0.172600
     15 O6          -5.0020     1.0880     2.5770 oh         1 17S      -0.704000
     16 C7          -0.7310     2.4890    -0.0470 cs         1 17S       0.497400
     17 O7           6.6710    -1.9840     0.8650 os         1 17S      -0.336100
     18 C8           2.5290     1.8200    -0.0880 ce         1 17S       0.429800
     19 C9           3.6120     0.8240     0.1700 ca         1 17S      -0.186900
     20 C10          3.6320     0.0350     1.3420 ca         1 17S      -0.040000
     21 C11          4.6640    -0.8950     1.5510 ca         1 17S      -0.180000
     22 C12          5.6850    -1.0540     0.6020 ca         1 17S       0.164100
     23 C13          5.6700    -0.2700    -0.5700 ca         1 17S      -0.180000
     24 C14          4.6390     0.6610    -0.7820 ca         1 17S      -0.040000
     25 C15          7.7610    -2.2230    -0.0430 c3         1 17S       0.146900
     26 H1          -2.7030     0.9960    -1.1940 h2         1 17S       0.108700
     27 HN1         -0.1070     0.5990     0.2100 hn         1 17S       0.334500
     28 H2          -1.2320    -1.5490    -0.2430 h1         1 17S       0.051700
     29 HN2          0.6430     3.8740     0.4990 hn         1 17S       0.348500
     30 HO2         -0.2830    -0.4930    -2.1290 ho         1 17S       0.516000
     31 H3          -3.7750    -1.2220    -1.9170 h1         1 17S       0.061700
     32 HO3         -2.1910    -3.0180    -2.2760 ho         1 17S       0.466000
     33 H4          -3.3740    -2.3280     0.9140 h1         1 17S       0.051700
     34 HO4         -5.0200    -3.2260    -0.6090 ho         1 17S       0.525000
     35 H5          -4.7630     0.2450    -0.0500 h1         1 17S       0.072700
     36 H6          -5.8540    -0.7170     1.9650 h1         1 17S       0.034700
     37 H6A         -4.2870    -0.8670     2.7690 h1         1 17S       0.034700
     38 HO6         -5.3940     1.0120     3.4780 ho         1 17S       0.503000
     39 H8           2.5880     2.3820    -1.0230 h4         1 17S      -0.007200
     40 H10          2.8530     0.1390     2.0940 ha         1 17S       0.119500
     41 H11          4.6730    -1.4980     2.4550 ha         1 17S       0.127000
     42 H13          6.4450    -0.3680    -1.3250 ha         1 17S       0.127000
     43 H14          4.6390     1.2590    -1.6920 ha         1 17S       0.119500
     44 H15          8.4270    -2.9980     0.3580 h1         1 17S       0.044367
     45 H15A         7.3900    -2.5650    -1.0170 h1         1 17S       0.044367
     46 H15B         8.3530    -1.3110    -0.1910 h1         1 17S       0.044367
@<TRIPOS>BOND
     1     1     2 1   
     2     1     4 1   
     3     1    13 1   
     4     1    26 1   
     5     2    16 1   
     6     2    27 1   
     7     3    16 2   
     8     4     6 1   
     9     4     7 1   
    10     4    28 1   
    11     5     8 1   
    12     5    16 1   
    13     5    29 1   
    14     6    30 1   
    15     7     9 1   
    16     7    10 1   
    17     7    31 1   
    18     8    18 2   
    19     9    32 1   
    20    10    11 1   
    21    10    12 1   
    22    10    33 1   
    23    11    34 1   
    24    12    13 1   
    25    12    14 1   
    26    12    35 1   
    27    14    15 1   
    28    14    36 1   
    29    14    37 1   
    30    15    38 1   
    31    17    22 1   
    32    17    25 1   
    33    18    19 1   
    34    18    39 1   
    35    19    20 ar  
    36    19    24 ar  
    37    20    21 ar  
    38    20    40 1   
    39    21    22 ar  
    40    21    41 1   
    41    22    23 ar  
    42    23    24 ar  
    43    23    42 1   
    44    24    43 1   
    45    25    44 1   
    46    25    45 1   
    47    25    46 1   
@<TRIPOS>SUBSTRUCTURE
     1 17S         1 TEMP              0 ****  ****    0 ROOT
