@<TRIPOS>MOLECULE
17S
   46    47     1     0     0
SMALL
abcg2


@<TRIPOS>ATOM
      1 C1          -2.3240     0.2820    -0.5000 c6         1 17S       0.300700
      2 N1          -0.9930     0.7920    -0.5250 ns         1 17S      -0.433900
      3 S1          -1.7360     3.3060    -1.1060 s          1 17S      -0.627400
      4 C2          -2.3860    -1.0720    -1.2100 c6         1 17S       0.100300
      5 N2           0.6580     2.3440    -0.6910 ns         1 17S      -0.227900
      6 O2          -2.0880    -0.9470    -2.5770 oh         1 17S      -0.713000
      7 C3          -3.8000    -1.6220    -1.0930 c6         1 17S       0.139300
      8 N3           1.5540     1.3850    -0.3960 n2         1 17S      -0.497300
      9 O3          -3.9000    -2.9320    -1.5980 oh         1 17S      -0.666000
     10 C4          -4.2440    -1.6580     0.3640 c6         1 17S       0.142300
     11 O4          -5.6000    -2.0120     0.4760 oh         1 17S      -0.714000
     12 C5          -4.0580    -0.2770     0.9970 c6         1 17S       0.179300
     13 O5          -2.7170     0.1430     0.8440 os         1 17S      -0.454000
     14 C6          -4.3670    -0.2950     2.4780 c3         1 17S       0.172600
     15 O6          -4.2700     1.0160     2.9820 oh         1 17S      -0.704000
     16 C7          -0.6610     2.0710    -0.7500 cs         1 17S       0.497400
     17 O7           6.8040    -1.9870     0.8620 os         1 17S      -0.336100
     18 C8           2.7880     1.7000    -0.3970 ce         1 17S       0.429800
     19 C9           3.8250     0.7330    -0.0740 ca         1 17S      -0.186900
     20 C10          3.5380    -0.5850     0.3060 ca         1 17S      -0.040000
     21 C11          4.5500    -1.4670     0.6090 ca         1 17S      -0.180000
     22 C12          5.8900    -1.0600     0.5430 ca         1 17S       0.164100
     23 C13          6.1890     0.2460     0.1650 ca         1 17S      -0.180000
     24 C14          5.1590     1.1250    -0.1370 ca         1 17S      -0.040000
     25 C15          8.1740    -1.6340     0.8180 c3         1 17S       0.146900
     26 H1          -2.9690     0.9990    -1.0220 h2         1 17S       0.108700
     27 HN1         -0.2370     0.1660    -0.2730 hn         1 17S       0.334500
     28 H2          -1.6950    -1.7660    -0.7080 h1         1 17S       0.051700
     29 HN2          0.9520     3.2950    -0.8890 hn         1 17S       0.348500
     30 HO2         -1.1390    -0.8320    -2.6820 ho         1 17S       0.516000
     31 H3          -4.4780    -0.9420    -1.6360 h1         1 17S       0.061700
     32 HO3         -3.8050    -2.9010    -2.5550 ho         1 17S       0.466000
     33 H4          -3.6030    -2.3730     0.9040 h1         1 17S       0.051700
     34 HO4         -5.7190    -2.8720     0.0590 ho         1 17S       0.525000
     35 H5          -4.7360     0.4340     0.4970 h1         1 17S       0.072700
     36 H6          -5.3720    -0.7060     2.6170 h1         1 17S       0.034700
     37 H6A         -3.6670    -0.9790     2.9780 h1         1 17S       0.034700
     38 HO6         -4.5370     0.9970     3.9050 ho         1 17S       0.503000
     39 H8           3.1200     2.7110    -0.6420 h4         1 17S      -0.007200
     40 H10          2.5100    -0.9170     0.3680 ha         1 17S       0.119500
     41 H11          4.3170    -2.4820     0.9060 ha         1 17S       0.127000
     42 H13          7.2100     0.5970     0.0990 ha         1 17S       0.127000
     43 H14          5.4080     2.1380    -0.4290 ha         1 17S       0.119500
     44 H15          8.7290    -2.5180     1.1190 h1         1 17S       0.044367
     45 H15A         8.4880    -1.3470    -0.1880 h1         1 17S       0.044367
     46 H15B         8.4060    -0.8200     1.5080 h1         1 17S       0.044367
@<TRIPOS>BOND
     1     1     2 1   
     2     1     4 1   
     3     1    13 1   
     4     1    26 1   
     5     2    16 1   
     6     2    27 1   
     7     3    16 2   
     8     4     6 1   
     9     4     7 1   
    10     4    28 1   
    11     5     8 1   
    12     5    16 1   
    13     5    29 1   
    14     6    30 1   
    15     7     9 1   
    16     7    10 1   
    17     7    31 1   
    18     8    18 2   
    19     9    32 1   
    20    10    11 1   
    21    10    12 1   
    22    10    33 1   
    23    11    34 1   
    24    12    13 1   
    25    12    14 1   
    26    12    35 1   
    27    14    15 1   
    28    14    36 1   
    29    14    37 1   
    30    15    38 1   
    31    17    22 1   
    32    17    25 1   
    33    18    19 1   
    34    18    39 1   
    35    19    20 ar  
    36    19    24 ar  
    37    20    21 ar  
    38    20    40 1   
    39    21    22 ar  
    40    21    41 1   
    41    22    23 ar  
    42    23    24 ar  
    43    23    42 1   
    44    24    43 1   
    45    25    44 1   
    46    25    45 1   
    47    25    46 1   
@<TRIPOS>SUBSTRUCTURE
     1 17S         1 TEMP              0 ****  ****    0 ROOT
