@<TRIPOS>MOLECULE
17T
   42    43     1     0     0
SMALL
abcg2


@<TRIPOS>ATOM
      1 C1          -2.3910     0.2870    -0.4890 c6         1 17T       0.300700
      2 N1          -1.0730     0.8310    -0.4890 ns         1 17T      -0.431900
      3 S1          -1.8800     3.3470    -0.9590 s          1 17T      -0.612400
      4 CL1          7.0810    -2.0220     0.8440 cl         1 17T      -0.191000
      5 C2          -2.4120    -1.0540    -1.2250 c6         1 17T       0.100300
      6 N2           0.5350     2.4370    -0.5590 ns         1 17T      -0.226900
      7 O2          -2.1010    -0.8990    -2.5850 oh         1 17T      -0.713000
      8 C3          -3.8150    -1.6390    -1.1360 c6         1 17T       0.138300
      9 N3           1.4540     1.4940    -0.3060 n2         1 17T      -0.486300
     10 O3          -3.8770    -2.9410    -1.6650 oh         1 17T      -0.665000
     11 C4          -4.2760    -1.7120     0.3150 c6         1 17T       0.142300
     12 O4          -5.6240    -2.0990     0.4000 oh         1 17T      -0.714000
     13 C5          -4.1300    -0.3390     0.9750 c6         1 17T       0.179300
     14 O5          -2.7970     0.1130     0.8460 os         1 17T      -0.455000
     15 C6          -4.4570    -0.3910     2.4520 c3         1 17T       0.172600
     16 O6          -4.3910     0.9110     2.9810 oh         1 17T      -0.703000
     17 C7          -0.7770     2.1280    -0.6480 cs         1 17T       0.494400
     18 C8           2.6780     1.8390    -0.2720 ce         1 17T       0.413800
     19 C9           3.7310     0.8700     0.0060 ca         1 17T      -0.137900
     20 C10          5.0580     1.2940    -0.0280 ca         1 17T      -0.073500
     21 C11          6.0960     0.4110     0.2270 ca         1 17T      -0.107500
     22 C12          5.7970    -0.9090     0.5200 ca         1 17T       0.133000
     23 C13          4.4810    -1.3570     0.5630 ca         1 17T      -0.107500
     24 C14          3.4560    -0.4670     0.3050 ca         1 17T      -0.073500
     25 H1          -3.0480     0.9980    -1.0050 h2         1 17T       0.108700
     26 HN1         -0.3040     0.2170    -0.2490 hn         1 17T       0.333500
     27 H2          -1.7110    -1.7410    -0.7260 h1         1 17T       0.051700
     28 HN2          0.8010     3.4050    -0.7040 hn         1 17T       0.350500
     29 HO2         -1.1530    -0.7640    -2.6780 ho         1 17T       0.516000
     30 H3          -4.4990    -0.9640    -1.6750 h1         1 17T       0.062700
     31 HO3         -3.7680    -2.8890    -2.6200 ho         1 17T       0.467000
     32 H4          -3.6260    -2.4220     0.8500 h1         1 17T       0.051700
     33 HO4         -5.7160    -2.9540    -0.0330 ho         1 17T       0.525000
     34 H5          -4.8170     0.3660     0.4790 h1         1 17T       0.072700
     35 H6          -5.4560    -0.8240     2.5690 h1         1 17T       0.035200
     36 H6A         -3.7510    -1.0720     2.9470 h1         1 17T       0.035200
     37 HO6         -4.6800     0.8700     3.8970 ho         1 17T       0.503000
     38 H8           2.9910     2.8690    -0.4500 h4         1 17T      -0.003200
     39 H10          5.2910     2.3260    -0.2580 ha         1 17T       0.124000
     40 H11          7.1220     0.7510     0.1950 ha         1 17T       0.134500
     41 H13          4.2610    -2.3890     0.7960 ha         1 17T       0.134500
     42 H14          2.4320    -0.8160     0.3420 ha         1 17T       0.124000
@<TRIPOS>BOND
     1     1     2 1   
     2     1     5 1   
     3     1    14 1   
     4     1    25 1   
     5     2    17 1   
     6     2    26 1   
     7     3    17 2   
     8     4    22 1   
     9     5     7 1   
    10     5     8 1   
    11     5    27 1   
    12     6     9 1   
    13     6    17 1   
    14     6    28 1   
    15     7    29 1   
    16     8    10 1   
    17     8    11 1   
    18     8    30 1   
    19     9    18 2   
    20    10    31 1   
    21    11    12 1   
    22    11    13 1   
    23    11    32 1   
    24    12    33 1   
    25    13    14 1   
    26    13    15 1   
    27    13    34 1   
    28    15    16 1   
    29    15    35 1   
    30    15    36 1   
    31    16    37 1   
    32    18    19 1   
    33    18    38 1   
    34    19    20 ar  
    35    19    24 ar  
    36    20    21 ar  
    37    20    39 1   
    38    21    22 ar  
    39    21    40 1   
    40    22    23 ar  
    41    23    24 ar  
    42    23    41 1   
    43    24    42 1   
@<TRIPOS>SUBSTRUCTURE
     1 17T         1 TEMP              0 ****  ****    0 ROOT
