@<TRIPOS>MOLECULE
17T
   42    43     1     0     0
SMALL
No Charge or Current Charge


@<TRIPOS>ATOM
      1 C1          -2.2550     0.4550    -0.4140 c6         1 17T       0.300700
      2 N1          -0.9960     1.1260    -0.1090 ns         1 17T      -0.431900
      3 S1          -1.9880     3.6200    -0.2020 s          1 17T      -0.612400
      4 Cl1          6.8630    -2.3750     0.2540 cl         1 17T      -0.191000
      5 C2          -2.0140    -0.9440    -1.0760 c6         1 17T       0.100300
      6 N2           0.4600     2.7910     0.5000 ns         1 17T      -0.226900
      7 O2          -1.3640    -0.8440    -2.3670 oh         1 17T      -0.713000
      8 C3          -3.3820    -1.6650    -1.2400 c6         1 17T       0.138300
      9 N3           1.4890     1.8810     0.7160 n2         1 17T      -0.486300
     10 O3          -3.1880    -2.9690    -1.8150 oh         1 17T      -0.665000
     11 C4          -4.1130    -1.7670     0.1290 c6         1 17T       0.142300
     12 O4          -5.3920    -2.4060    -0.0510 oh         1 17T      -0.714000
     13 C5          -4.2440    -0.3400     0.7480 c6         1 17T       0.179300
     14 O5          -2.9290     0.2720     0.8480 os         1 17T      -0.455000
     15 C6          -4.8880    -0.3680     2.1740 c3         1 17T       0.172600
     16 O6          -4.9790     0.9340     2.7910 oh         1 17T      -0.703000
     17 C7          -0.8130     2.4640     0.0810 cs         1 17T       0.494400
     18 C8           2.4310     1.7630    -0.1710 ce         1 17T       0.413800
     19 C9           3.5140     0.7390    -0.0440 ca         1 17T      -0.137900
     20 C10          4.4930     0.6420    -1.0550 ca         1 17T      -0.073500
     21 C11          5.5210    -0.3140    -0.9630 ca         1 17T      -0.107500
     22 C12          5.5780    -1.1800     0.1400 ca         1 17T       0.133000
     23 C13          4.6090    -1.0930     1.1520 ca         1 17T      -0.107500
     24 C14          3.5800    -0.1390     1.0630 ca         1 17T      -0.073500
     25 H1          -2.8600     1.0880    -1.0820 h2         1 17T       0.108700
     26 HN1         -0.2080     0.5520     0.1600 hn         1 17T       0.333500
     27 H2          -1.3910    -1.5400    -0.3920 h1         1 17T       0.051700
     28 HN2          0.6080     3.7860     0.6650 hn         1 17T       0.350500
     29 HO2         -0.5120    -0.3630    -2.2390 ho         1 17T       0.516000
     30 H3          -4.0030    -1.0550    -1.9140 h1         1 17T       0.062700
     31 HO3         -2.4700    -2.8410    -2.4790 ho         1 17T       0.467000
     32 H4          -3.4910    -2.3730     0.8050 h1         1 17T       0.051700
     33 HO4         -5.2210    -3.1330    -0.6980 ho         1 17T       0.525000
     34 H5          -4.8780     0.2830     0.1000 h1         1 17T       0.072700
     35 H6          -5.8910    -0.8090     2.0890 h1         1 17T       0.035200
     36 H6A         -4.2900    -1.0410     2.8040 h1         1 17T       0.035200
     37 HO6         -5.3300     0.7960     3.7010 ho         1 17T       0.503000
     38 H8           2.4530     2.3950    -1.0620 h4         1 17T      -0.003200
     39 H10          4.4600     1.3070    -1.9160 ha         1 17T       0.124000
     40 H11          6.2720    -0.3830    -1.7450 ha         1 17T       0.134500
     41 H13          4.6560    -1.7660     2.0050 ha         1 17T       0.134500
     42 H14          2.8380    -0.0860     1.8570 ha         1 17T       0.124000
@<TRIPOS>BOND
     1     1     2 1   
     2     1     5 1   
     3     1    14 1   
     4     1    25 1   
     5     2    17 1   
     6     2    26 1   
     7     3    17 2   
     8     4    22 1   
     9     5     7 1   
    10     5     8 1   
    11     5    27 1   
    12     6     9 1   
    13     6    17 1   
    14     6    28 1   
    15     7    29 1   
    16     8    10 1   
    17     8    11 1   
    18     8    30 1   
    19     9    18 2   
    20    10    31 1   
    21    11    12 1   
    22    11    13 1   
    23    11    32 1   
    24    12    33 1   
    25    13    14 1   
    26    13    15 1   
    27    13    34 1   
    28    15    16 1   
    29    15    35 1   
    30    15    36 1   
    31    16    37 1   
    32    18    19 1   
    33    18    38 1   
    34    19    20 ar  
    35    19    24 ar  
    36    20    21 ar  
    37    20    39 1   
    38    21    22 ar  
    39    21    40 1   
    40    22    23 ar  
    41    23    24 ar  
    42    23    41 1   
    43    24    42 1   
@<TRIPOS>SUBSTRUCTURE
     1 17T         1 TEMP              0 ****  ****    0 ROOT
