@<TRIPOS>MOLECULE
17U
   30    29     1     0     0
SMALL
No Charge or Current Charge


@<TRIPOS>ATOM
      1 N3          -0.3370     2.2380    -0.1430 n8         1 17U      -0.991200
      2 C11         -0.0080     0.8050     0.0670 c3         1 17U       0.133500
      3 C16          1.4130     0.4770    -0.5140 c3         1 17U       0.161500
      4 O6           2.3790     1.4340    -0.0460 oh         1 17U      -0.657000
      5 C17          1.9270    -0.9330    -0.2140 c2         1 17U      -0.142400
      6 C23          1.8800    -1.3550     1.2500 c3         1 17U      -0.058900
      7 C18          2.4070    -1.7430    -1.1720 c2         1 17U      -0.300000
      8 C12         -1.1160    -0.1130    -0.5260 c3         1 17U      -0.065400
      9 C13         -2.5350     0.0350     0.0990 c3         1 17U      -0.052700
     10 C15         -3.5700    -0.8080    -0.6810 c3         1 17U      -0.087100
     11 C14         -2.5650    -0.3220     1.6050 c3         1 17U      -0.087100
     12 H12          0.5390     2.7600    -0.0140 hn         1 17U       0.398000
     13 H13          0.0400     0.6450     1.1520 h1         1 17U       0.059700
     14 H14          1.3290     0.5740    -1.6070 h1         1 17U       0.070700
     15 H15          2.6720     1.1220     0.8360 ho         1 17U       0.441000
     16 H16          2.4040    -0.6410     1.8960 hc         1 17U       0.041367
     17 H17          0.8490    -1.4440     1.6120 hc         1 17U       0.041367
     18 H18          2.3530    -2.3330     1.3990 hc         1 17U       0.041367
     19 H19          2.4490    -1.4350    -2.2180 ha         1 17U       0.165000
     20 H20          2.7770    -2.7440    -0.9480 ha         1 17U       0.165000
     21 H21         -1.1810     0.0730    -1.6060 hc         1 17U       0.039700
     22 H22         -0.8060    -1.1600    -0.4200 hc         1 17U       0.039700
     23 H23         -2.8430     1.0840     0.0030 hc         1 17U       0.060700
     24 H24         -4.5770    -0.6620    -0.2720 hc         1 17U       0.031200
     25 H25         -3.5920    -0.5170    -1.7380 hc         1 17U       0.031200
     26 H26         -3.3280    -1.8760    -0.6230 hc         1 17U       0.031200
     27 H27         -1.9380     0.3620     2.1880 hc         1 17U       0.031200
     28 H28         -3.5860    -0.2490     1.9990 hc         1 17U       0.031200
     29 H29         -2.2070    -1.3450     1.7710 hc         1 17U       0.031200
     30 H2          -0.5450     2.3850    -1.1360 hn         1 17U       0.398000
@<TRIPOS>BOND
     1     1     2 1   
     2     1    12 1   
     3     1    30 1   
     4     2     3 1   
     5     2     8 1   
     6     2    13 1   
     7     3     4 1   
     8     3     5 1   
     9     3    14 1   
    10     4    15 1   
    11     5     6 1   
    12     5     7 2   
    13     6    16 1   
    14     6    17 1   
    15     6    18 1   
    16     7    19 1   
    17     7    20 1   
    18     8     9 1   
    19     8    21 1   
    20     8    22 1   
    21     9    10 1   
    22     9    11 1   
    23     9    23 1   
    24    10    24 1   
    25    10    25 1   
    26    10    26 1   
    27    11    27 1   
    28    11    28 1   
    29    11    29 1   
@<TRIPOS>SUBSTRUCTURE
     1 17U         1 TEMP              0 ****  ****    0 ROOT
