@<TRIPOS>MOLECULE
17U
   30    29     1     0     0
SMALL
abcg2


@<TRIPOS>ATOM
      1 N3          -0.4230     2.1440    -0.0330 n8         1 17U      -0.991200
      2 C11          0.0020     0.7670     0.1660 c3         1 17U       0.133500
      3 C16          1.4050     0.4910    -0.4140 c3         1 17U       0.161500
      4 O6           2.3640     1.3910     0.1200 oh         1 17U      -0.657000
      5 C17          1.8610    -0.9400    -0.2490 c2         1 17U      -0.142400
      6 C23          2.0600    -1.4430     1.1500 c3         1 17U      -0.058900
      7 C18          2.0860    -1.7050    -1.3140 c2         1 17U      -0.300000
      8 C12         -1.0240    -0.1910    -0.4330 c3         1 17U      -0.065400
      9 C13         -2.4720     0.0410     0.0010 c3         1 17U      -0.052700
     10 C15         -3.3860    -0.9580    -0.7010 c3         1 17U      -0.087100
     11 C14         -2.6320    -0.0500     1.5140 c3         1 17U      -0.087100
     12 H12          0.3030     2.7760     0.2800 hn         1 17U       0.398000
     13 H13          0.0490     0.6000     1.2500 h1         1 17U       0.059700
     14 H14          1.3600     0.7170    -1.4850 h1         1 17U       0.070700
     15 H15          2.3490     1.3270     1.0810 ho         1 17U       0.441000
     16 H16          2.8120    -0.8590     1.6860 hc         1 17U       0.041367
     17 H17          1.1400    -1.3810     1.7380 hc         1 17U       0.041367
     18 H18          2.3870    -2.4810     1.1560 hc         1 17U       0.041367
     19 H19          1.9450    -1.3300    -2.3210 ha         1 17U       0.165000
     20 H20          2.4100    -2.7350    -1.2200 ha         1 17U       0.165000
     21 H21         -0.9630    -0.1250    -1.5270 hc         1 17U       0.039700
     22 H22         -0.7430    -1.2180    -0.1820 hc         1 17U       0.039700
     23 H23         -2.7680     1.0470    -0.3100 hc         1 17U       0.060700
     24 H24         -4.4340    -0.7850    -0.4480 hc         1 17U       0.031200
     25 H25         -3.2930    -0.8900    -1.7870 hc         1 17U       0.031200
     26 H26         -3.1420    -1.9840    -0.4130 hc         1 17U       0.031200
     27 H27         -2.0460     0.7120     2.0290 hc         1 17U       0.031200
     28 H28         -3.6750     0.0860     1.8070 hc         1 17U       0.031200
     29 H29         -2.3100    -1.0280     1.8840 hc         1 17U       0.031200
     30 H2          -0.5370     2.3200    -1.0250 hn         1 17U       0.398000
@<TRIPOS>BOND
     1     1     2 1   
     2     1    12 1   
     3     1    30 1   
     4     2     3 1   
     5     2     8 1   
     6     2    13 1   
     7     3     4 1   
     8     3     5 1   
     9     3    14 1   
    10     4    15 1   
    11     5     6 1   
    12     5     7 2   
    13     6    16 1   
    14     6    17 1   
    15     6    18 1   
    16     7    19 1   
    17     7    20 1   
    18     8     9 1   
    19     8    21 1   
    20     8    22 1   
    21     9    10 1   
    22     9    11 1   
    23     9    23 1   
    24    10    24 1   
    25    10    25 1   
    26    10    26 1   
    27    11    27 1   
    28    11    28 1   
    29    11    29 1   
@<TRIPOS>SUBSTRUCTURE
     1 17U         1 TEMP              0 ****  ****    0 ROOT
