@<TRIPOS>MOLECULE
17V
   43    46     1     0     0
SMALL
No Charge or Current Charge


@<TRIPOS>ATOM
      1 C1           3.8000    -2.3040    -1.4510 c3         1 17V      -0.102600
      2 C2           4.0780    -1.9840     0.0350 c3         1 17V       0.102300
      3 C3           5.1220    -2.9650     0.6270 c3         1 17V      -0.102600
      4 N4           4.4340    -0.5510     0.2250 na         1 17V      -0.052700
      5 C5           3.6170     0.5680     0.3850 cc         1 17V       0.500000
      6 N6           4.3950     1.6240     0.5240 nd         1 17V      -0.692000
      7 C7           5.6810     1.1350     0.4250 cd         1 17V       0.517900
      8 N8           5.7470    -0.1730     0.2350 nc         1 17V      -0.537800
      9 C9           2.1690     0.6000     0.3870 cc         1 17V      -0.271500
     10 C10          1.4790     1.7830     0.5630 cd         1 17V      -0.065000
     11 C11          0.0600     1.6490     0.5220 cd         1 17V      -0.095300
     12 C12         -0.3110     0.3460     0.3040 cc         1 17V      -0.153000
     13 S13          1.0550    -0.7490     0.1730 ss         1 17V       0.243000
     14 C14         -1.7240    -0.0170     0.2010 ca         1 17V      -0.024000
     15 C15         -2.1960    -1.1930     0.8100 ca         1 17V      -0.100000
     16 C16         -3.5490    -1.5620     0.7050 ca         1 17V      -0.097000
     17 C17         -4.4600    -0.7640    -0.0290 ca         1 17V      -0.136600
     18 C18         -3.9760     0.4100    -0.6490 ca         1 17V      -0.074000
     19 C19         -2.6290     0.7890    -0.5250 ca         1 17V       0.126100
     20 O20         -2.1880     1.9070    -1.1990 os         1 17V      -0.362100
     21 C21         -1.7960     3.1080    -0.4960 c3         1 17V       0.178600
     22 C22         -0.9090     2.7860     0.7310 c3         1 17V      -0.049100
     23 C23         -5.9210    -1.1350    -0.1730 c          1 17V       0.615700
     24 O24         -6.7140    -0.4570    -0.8060 o          1 17V      -0.596100
     25 N25         -6.3580    -2.2650     0.4250 nt         1 17V      -0.603000
     26 H1           4.7110    -2.1830    -2.0490 hc         1 17V       0.052033
     27 H2           3.4480    -3.3360    -1.5660 hc         1 17V       0.052033
     28 H3           3.0340    -1.6360    -1.8620 hc         1 17V       0.052033
     29 H4           3.1660    -2.1770     0.6070 h1         1 17V       0.061700
     30 H5           5.3060    -2.7410     1.6840 hc         1 17V       0.052033
     31 H6           4.7590    -3.9980     0.5590 hc         1 17V       0.052033
     32 H7           6.0750    -2.9050     0.0880 hc         1 17V       0.052033
     33 H8           6.5490     1.7830     0.4960 h5         1 17V       0.063100
     34 H9           1.9670     2.7400     0.7240 ha         1 17V       0.153000
     35 H10         -1.5140    -1.8240     1.3760 ha         1 17V       0.118000
     36 H11         -3.8720    -2.4760     1.1970 ha         1 17V       0.115000
     37 H12         -4.6440     1.0380    -1.2340 ha         1 17V       0.150000
     38 H13         -1.2380     3.7620    -1.1780 h1         1 17V       0.055200
     39 H14         -2.6810     3.6620    -0.1590 h1         1 17V       0.055200
     40 H15         -1.5640     2.5480     1.5780 hc         1 17V       0.059700
     41 H16         -0.3730     3.6980     1.0210 hc         1 17V       0.059700
     42 H17         -5.7210    -2.8400     0.9530 hn         1 17V       0.314000
     43 H18         -7.3300    -2.5230     0.3370 hn         1 17V       0.314000
@<TRIPOS>BOND
     1     1     2 1   
     2     1    26 1   
     3     1    27 1   
     4     1    28 1   
     5     2     3 1   
     6     2     4 1   
     7     2    29 1   
     8     3    30 1   
     9     3    31 1   
    10     3    32 1   
    11     4     5 1   
    12     4     8 1   
    13     5     6 2   
    14     5     9 1   
    15     6     7 1   
    16     7     8 2   
    17     7    33 1   
    18     9    10 2   
    19     9    13 1   
    20    10    11 1   
    21    10    34 1   
    22    11    12 2   
    23    11    22 1   
    24    12    13 1   
    25    12    14 1   
    26    14    15 ar  
    27    14    19 ar  
    28    15    16 ar  
    29    15    35 1   
    30    16    17 ar  
    31    16    36 1   
    32    17    18 ar  
    33    17    23 1   
    34    18    19 ar  
    35    18    37 1   
    36    19    20 1   
    37    20    21 1   
    38    21    22 1   
    39    21    38 1   
    40    21    39 1   
    41    22    40 1   
    42    22    41 1   
    43    23    24 2   
    44    23    25 1   
    45    25    42 1   
    46    25    43 1   
@<TRIPOS>SUBSTRUCTURE
     1 17V         1 TEMP              0 ****  ****    0 ROOT
