@<TRIPOS>MOLECULE
17V
   43    46     1     0     0
SMALL
bcc


@<TRIPOS>ATOM
      1 C1           3.8650    -2.6920    -1.1140 c3         1 17V      -0.102600
      2 C2           3.9810    -1.9260     0.1960 c3         1 17V       0.073000
      3 C3           4.9640    -2.5750     1.1570 c3         1 17V      -0.102600
      4 N4           4.3510    -0.5340    -0.0580 na         1 17V      -0.023400
      5 C5           3.5940     0.5770    -0.0970 cc         1 17V       0.500000
      6 N6           4.3640     1.6260    -0.3310 nd         1 17V      -0.692000
      7 C7           5.5900     1.0890    -0.4370 cd         1 17V       0.517900
      8 N8           5.6260    -0.2130    -0.2880 nc         1 17V      -0.537800
      9 C9           2.1590     0.6730     0.0900 cc         1 17V      -0.126600
     10 C10          1.5060     1.7620     0.6030 cd         1 17V      -0.083000
     11 C11          0.0990     1.6230     0.5970 cd         1 17V      -0.095300
     12 C12         -0.3000     0.4280     0.0560 cc         1 17V      -0.008100
     13 S13          1.0370    -0.5250    -0.4410 ss         1 17V      -0.046800
     14 C14         -1.6810    -0.0130    -0.0600 ca         1 17V      -0.024000
     15 C15         -2.0780    -1.3260     0.1880 ca         1 17V      -0.118000
     16 C16         -3.4100    -1.6930     0.1100 ca         1 17V      -0.115000
     17 C17         -4.3790    -0.7470    -0.2180 ca         1 17V      -0.136600
     18 C18         -3.9900     0.5590    -0.4980 ca         1 17V      -0.092000
     19 C19         -2.6570     0.9280    -0.4250 ca         1 17V       0.126100
     20 O20         -2.2900     2.1680    -0.8320 os         1 17V      -0.338900
     21 C21         -1.8560     3.1350     0.1200 c3         1 17V       0.155400
     22 C22         -0.8990     2.5790     1.1690 c3         1 17V      -0.049100
     23 C23         -5.8340    -1.0820    -0.3260 c          1 17V       0.682700
     24 O24         -6.5860    -0.4040    -1.0110 o          1 17V      -0.596100
     25 N25         -6.2440    -2.1570     0.3630 nt         1 17V      -0.670000
     26 H1           4.8320    -2.7510    -1.6150 hc         1 17V       0.052033
     27 H2           3.5220    -3.7080    -0.9180 hc         1 17V       0.052033
     28 H3           3.1550    -2.2240    -1.7960 hc         1 17V       0.052033
     29 H4           3.0080    -1.8930     0.6860 h1         1 17V       0.061700
     30 H5           5.0690    -1.9960     2.0730 hc         1 17V       0.052033
     31 H6           4.5890    -3.5630     1.4240 hc         1 17V       0.052033
     32 H7           5.9460    -2.6980     0.7050 hc         1 17V       0.052033
     33 H8           6.4790     1.6670    -0.6350 h5         1 17V       0.063100
     34 H9           2.0250     2.6280     0.9900 ha         1 17V       0.171000
     35 H10         -1.3370    -2.0680     0.4570 ha         1 17V       0.136000
     36 H11         -3.6740    -2.7260     0.2950 ha         1 17V       0.133000
     37 H12         -4.7270     1.2960    -0.7900 ha         1 17V       0.168000
     38 H13         -1.3620     3.9040    -0.4730 h1         1 17V       0.055200
     39 H14         -2.7190     3.5900     0.6170 h1         1 17V       0.055200
     40 H15         -1.4700     2.0700     1.9510 hc         1 17V       0.059700
     41 H16         -0.4010     3.4220     1.6490 hc         1 17V       0.059700
     42 H17         -5.6620    -2.6180     1.0410 hn         1 17V       0.314000
     43 H18         -7.2170    -2.4160     0.3480 hn         1 17V       0.314000
@<TRIPOS>BOND
     1     1     2 1   
     2     1    26 1   
     3     1    27 1   
     4     1    28 1   
     5     2     3 1   
     6     2     4 1   
     7     2    29 1   
     8     3    30 1   
     9     3    31 1   
    10     3    32 1   
    11     4     5 1   
    12     4     8 1   
    13     5     6 2   
    14     5     9 1   
    15     6     7 1   
    16     7     8 2   
    17     7    33 1   
    18     9    10 2   
    19     9    13 1   
    20    10    11 1   
    21    10    34 1   
    22    11    12 2   
    23    11    22 1   
    24    12    13 1   
    25    12    14 1   
    26    14    15 ar  
    27    14    19 ar  
    28    15    16 ar  
    29    15    35 1   
    30    16    17 ar  
    31    16    36 1   
    32    17    18 ar  
    33    17    23 1   
    34    18    19 ar  
    35    18    37 1   
    36    19    20 1   
    37    20    21 1   
    38    21    22 1   
    39    21    38 1   
    40    21    39 1   
    41    22    40 1   
    42    22    41 1   
    43    23    24 2   
    44    23    25 1   
    45    25    42 1   
    46    25    43 1   
@<TRIPOS>SUBSTRUCTURE
     1 17V         1 TEMP              0 ****  ****    0 ROOT
