@<TRIPOS>MOLECULE
17W
   33    35     1     0     0
SMALL
No Charge or Current Charge


@<TRIPOS>ATOM
      1 C19         -4.8870     0.8820     0.0010 ca         1 17W      -0.169500
      2 C18         -6.2920     0.9460     0.0010 ca         1 17W      -0.074000
      3 C17         -7.0510    -0.2370    -0.0060 ca         1 17W      -0.146000
      4 C16         -6.4080    -1.4860    -0.0130 ca         1 17W      -0.074000
      5 C15         -5.0040    -1.5500    -0.0140 ca         1 17W      -0.169500
      6 C14         -4.2370    -0.3730    -0.0070 ca         1 17W       0.140100
      7 O13         -2.8630    -0.4990    -0.0080 os         1 17W      -0.344100
      8 C12         -1.9890     0.6430    -0.0010 c3         1 17W       0.169600
      9 C11         -0.5410     0.1240    -0.0040 c3         1 17W       0.058600
     10 S10          0.6610     1.5320     0.0040 ss         1 17W      -0.255200
     11 C8           2.2060     0.6970    -0.0010 cc         1 17W       0.435700
     12 N9           3.3960     1.4030     0.0030 na         1 17W      -0.304600
     13 C2           4.3750     0.4560    -0.0030 ca         1 17W      -0.073200
     14 N7           2.3600    -0.6350    -0.0090 nd         1 17W      -0.584100
     15 C3           3.7500    -0.7670    -0.0100 ca         1 17W       0.075400
     16 C4           4.5030    -1.9500    -0.0170 ca         1 17W      -0.050000
     17 C5           5.9130    -1.8480    -0.0170 ca         1 17W      -0.133000
     18 C6           6.5420    -0.5790    -0.0100 ca         1 17W      -0.092000
     19 C1           5.7670     0.5990    -0.0020 ca         1 17W      -0.115000
     20 H1          -4.3240     1.8110     0.0060 ha         1 17W       0.121500
     21 H2          -6.7930     1.9120     0.0070 ha         1 17W       0.112500
     22 H3          -8.1380    -0.1850    -0.0060 ha         1 17W       0.115000
     23 H4          -6.9960    -2.4010    -0.0190 ha         1 17W       0.112500
     24 H5          -4.5060    -2.5160    -0.0200 ha         1 17W       0.121500
     25 H6          -2.1540     1.2650    -0.8900 h1         1 17W       0.044200
     26 H7          -2.1540     1.2550     0.8950 h1         1 17W       0.044200
     27 H8          -0.3730    -0.4990     0.8830 h1         1 17W       0.096700
     28 H9          -0.3730    -0.4890    -0.8990 h1         1 17W       0.096700
     29 H10          3.4990     2.4090     0.0090 hn         1 17W       0.365000
     30 H12          4.0120    -2.9200    -0.0230 ha         1 17W       0.129000
     31 H13          6.5180    -2.7520    -0.0230 ha         1 17W       0.115000
     32 H14          7.6280    -0.5130    -0.0090 ha         1 17W       0.113000
     33 H15          6.2360     1.5810     0.0030 ha         1 17W       0.118000
@<TRIPOS>BOND
     1     1     2 ar  
     2     1     6 ar  
     3     1    20 1   
     4     2     3 ar  
     5     2    21 1   
     6     3     4 ar  
     7     3    22 1   
     8     4     5 ar  
     9     4    23 1   
    10     5     6 ar  
    11     5    24 1   
    12     6     7 1   
    13     7     8 1   
    14     8     9 1   
    15     8    25 1   
    16     8    26 1   
    17     9    10 1   
    18     9    27 1   
    19     9    28 1   
    20    10    11 1   
    21    11    12 1   
    22    11    14 2   
    23    12    13 1   
    24    12    29 1   
    25    13    15 ar  
    26    13    19 ar  
    27    14    15 1   
    28    15    16 ar  
    29    16    17 ar  
    30    16    30 1   
    31    17    18 ar  
    32    17    31 1   
    33    18    19 ar  
    34    18    32 1   
    35    19    33 1   
@<TRIPOS>SUBSTRUCTURE
     1 17W         1 TEMP              0 ****  ****    0 ROOT
