@<TRIPOS>MOLECULE
17W
   33    35     1     0     0
SMALL
abcg2


@<TRIPOS>ATOM
      1 C19         -4.7630     0.8810     0.0190 ca         1 17W      -0.169500
      2 C18         -6.1510     0.9590     0.0630 ca         1 17W      -0.074000
      3 C17         -6.9310    -0.1860     0.0490 ca         1 17W      -0.146000
      4 C16         -6.3070    -1.4290    -0.0110 ca         1 17W      -0.074000
      5 C15         -4.9270    -1.5240    -0.0560 ca         1 17W      -0.169500
      6 C14         -4.1470    -0.3660    -0.0400 ca         1 17W       0.140100
      7 O13         -2.8090    -0.5520    -0.0850 os         1 17W      -0.344100
      8 C12         -1.9640     0.5780    -0.0380 c3         1 17W       0.169600
      9 C11         -0.5430     0.0450    -0.0710 c3         1 17W       0.058600
     10 S10          0.5740     1.4760    -0.0220 ss         1 17W      -0.255200
     11 C8           2.1080     0.6570    -0.0110 cc         1 17W       0.435700
     12 N9           3.2600     1.3780    -0.0150 na         1 17W      -0.304600
     13 C2           4.2940     0.4750    -0.0020 ca         1 17W      -0.073200
     14 N7           2.2990    -0.6310     0.0030 nd         1 17W      -0.584100
     15 C3           3.6680    -0.7820     0.0090 ca         1 17W       0.075400
     16 C4           4.4420    -1.9410     0.0240 ca         1 17W      -0.050000
     17 C5           5.8190    -1.8000     0.0280 ca         1 17W      -0.133000
     18 C6           6.4260    -0.5360     0.0150 ca         1 17W      -0.092000
     19 C1           5.6730     0.6270     0.0010 ca         1 17W      -0.115000
     20 H1          -4.1850     1.7960     0.0300 ha         1 17W       0.121500
     21 H2          -6.6190     1.9340     0.1100 ha         1 17W       0.112500
     22 H3          -8.0100    -0.1160     0.0840 ha         1 17W       0.115000
     23 H4          -6.9010    -2.3330    -0.0230 ha         1 17W       0.112500
     24 H5          -4.4430    -2.4920    -0.1030 ha         1 17W       0.121500
     25 H6          -2.1470     1.2390    -0.8920 h1         1 17W       0.044200
     26 H7          -2.1350     1.1550     0.8770 h1         1 17W       0.044200
     27 H8          -0.3480    -0.5920     0.7900 h1         1 17W       0.096700
     28 H9          -0.3600    -0.5210    -0.9830 h1         1 17W       0.096700
     29 H10          3.3400     2.3820    -0.0300 hn         1 17W       0.365000
     30 H12          3.9770    -2.9180     0.0340 ha         1 17W       0.129000
     31 H13          6.4460    -2.6830     0.0400 ha         1 17W       0.115000
     32 H14          7.5050    -0.4680     0.0170 ha         1 17W       0.113000
     33 H15          6.1410     1.6030    -0.0090 ha         1 17W       0.118000
@<TRIPOS>BOND
     1     1     2 ar  
     2     1     6 ar  
     3     1    20 1   
     4     2     3 ar  
     5     2    21 1   
     6     3     4 ar  
     7     3    22 1   
     8     4     5 ar  
     9     4    23 1   
    10     5     6 ar  
    11     5    24 1   
    12     6     7 1   
    13     7     8 1   
    14     8     9 1   
    15     8    25 1   
    16     8    26 1   
    17     9    10 1   
    18     9    27 1   
    19     9    28 1   
    20    10    11 1   
    21    11    12 1   
    22    11    14 2   
    23    12    13 1   
    24    12    29 1   
    25    13    15 ar  
    26    13    19 ar  
    27    14    15 1   
    28    15    16 ar  
    29    16    17 ar  
    30    16    30 1   
    31    17    18 ar  
    32    17    31 1   
    33    18    19 ar  
    34    18    32 1   
    35    19    33 1   
@<TRIPOS>SUBSTRUCTURE
     1 17W         1 TEMP              0 ****  ****    0 ROOT
