@<TRIPOS>MOLECULE
17X
   90    97     1     0     0
SMALL
bcc


@<TRIPOS>ATOM
      1 CAI          3.3100     2.8290    -1.1950 ca         1 17X      -0.119000
      2 CAJ          2.7820     3.2830    -2.3940 ca         1 17X      -0.127500
      3 CAK          3.0220     2.5830    -3.5700 ca         1 17X      -0.127000
      4 CAL          3.7930     1.4310    -3.5340 ca         1 17X      -0.127500
      5 CAM          4.3240     0.9780    -2.3320 ca         1 17X      -0.119000
      6 CAH          4.0870     1.6740    -1.1520 ca         1 17X      -0.113300
      7 CAG          4.6430     1.2270     0.1810 c3         1 17X       0.095600
      8 NAD          5.1360    -0.1270     0.2120 na         1 17X      -0.166300
      9 CAC          6.4280    -0.5010    -0.0860 ca         1 17X      -0.084200
     10 CAF          7.4870     0.1940    -0.6500 ca         1 17X      -0.129000
     11 CAE          8.6810    -0.4990    -0.7980 ca         1 17X      -0.122000
     12 CAX          8.8000    -1.8360    -0.4020 ca         1 17X      -0.148000
     13 CAW          7.7310    -2.5210     0.1590 ca         1 17X      -0.080000
     14 CAV          6.5280    -1.8410     0.3180 ca         1 17X       0.091400
     15 NAY          5.3250    -2.2700     0.8270 nc         1 17X      -0.629100
     16 CAB          4.5290    -1.2360     0.7520 cd         1 17X       0.628700
     17 NAA          3.2380    -1.1940     1.2050 nh         1 17X      -0.716600
     18 CAR          2.1950    -0.8200     0.2500 c6         1 17X       0.200300
     19 CAQ          0.9370    -0.4050     0.9820 c6         1 17X      -0.075900
     20 CAN          2.8390    -2.2950     2.0740 c6         1 17X       0.200300
     21 CAO          1.5650    -1.9470     2.8320 c6         1 17X      -0.075900
     22 CAP          0.4530    -1.5590     1.8690 c6         1 17X      -0.121700
     23 CAS         -0.8250    -1.1590     2.5580 c          1 17X       0.649100
     24 OAT         -0.9350    -0.8360     3.7130 o          1 17X      -0.528000
     25 OAU         -1.8390    -1.1560     1.6970 os         1 17X      -0.425900
     26 CBP         -3.0770    -0.5800     2.0920 c3         1 17X       0.123400
     27 CBO         -3.9430    -0.4240     0.8480 c3         1 17X       0.067000
     28 CBQ         -4.4220    -1.7340     0.2150 c6         1 17X      -0.066700
     29 CBR         -5.2150    -1.4840    -1.0690 c6         1 17X      -0.075900
     30 CBS         -5.7500    -2.7900    -1.6360 c6         1 17X       0.160300
     31 NBV         -6.5840    -3.4570    -0.6550 n7         1 17X      -0.808200
     32 CBT         -5.8370    -3.7870     0.5430 c6         1 17X       0.160300
     33 CBU         -5.2940    -2.5230     1.1950 c6         1 17X      -0.075900
     34 NBH         -3.2830     0.4790    -0.1000 na         1 17X      -0.144300
     35 CBD         -2.2210     0.1950    -0.9420 ca         1 17X      -0.063200
     36 CBE         -1.6660    -0.9860    -1.4350 ca         1 17X      -0.120000
     37 CAZ         -0.5760    -0.8730    -2.2800 ca         1 17X      -0.127000
     38 CBA         -0.0330     0.3720    -2.6270 ca         1 17X      -0.154000
     39 CBB         -0.5910     1.5410    -2.1510 ca         1 17X      -0.072000
     40 CBC         -1.7000     1.4460    -1.3100 ca         1 17X       0.060400
     41 NBF         -2.4220     2.4510    -0.7190 nc         1 17X      -0.565100
     42 CBG         -3.3400     1.8490    -0.0180 cd         1 17X       0.462400
     43 CBI         -4.3430     2.5830     0.7680 ca         1 17X      -0.120900
     44 CBJ         -3.9210     3.5910     1.6320 ca         1 17X      -0.101000
     45 CBK         -4.8510     4.3290     2.3510 ca         1 17X      -0.132000
     46 CBL         -6.2080     4.0710     2.2070 ca         1 17X      -0.114000
     47 CBM         -6.6350     3.0760     1.3370 ca         1 17X      -0.132000
     48 CBN         -5.7080     2.3360     0.6190 ca         1 17X      -0.101000
     49 H1           3.1110     3.3750    -0.2800 ha         1 17X       0.138500
     50 H2           2.1760     4.1790    -2.4090 ha         1 17X       0.134000
     51 H3           2.6080     2.9330    -4.5070 ha         1 17X       0.134000
     52 H4           3.9840     0.8770    -4.4440 ha         1 17X       0.134000
     53 H5           4.9170     0.0710    -2.3260 ha         1 17X       0.138500
     54 H6           5.4640     1.8870     0.4740 h1         1 17X       0.072200
     55 H7           3.8860     1.3320     0.9600 h1         1 17X       0.072200
     56 H8           7.3950     1.2250    -0.9660 ha         1 17X       0.137000
     57 H9           9.5350     0.0040    -1.2310 ha         1 17X       0.129000
     58 H10          9.7460    -2.3440    -0.5360 ha         1 17X       0.130000
     59 H11          7.8300    -3.5550     0.4650 ha         1 17X       0.144000
     60 H12          2.5280    -0.0020    -0.3820 h1         1 17X       0.053450
     61 H13          1.9740    -1.6640    -0.4190 h1         1 17X       0.053450
     62 H14          1.1460     0.4760     1.5960 hc         1 17X       0.065950
     63 H15          0.1810    -0.1320     0.2480 hc         1 17X       0.065950
     64 H16          2.6880    -3.2160     1.4940 h1         1 17X       0.053450
     65 H17          3.6420    -2.4910     2.7820 h1         1 17X       0.053450
     66 H18          1.2770    -2.8130     3.4320 hc         1 17X       0.065950
     67 H19          1.7640    -1.1240     3.5220 hc         1 17X       0.065950
     68 H20          0.2270    -2.4070     1.2120 hc         1 17X       0.074700
     69 H21         -3.5820    -1.2060     2.8300 h1         1 17X       0.061200
     70 H22         -2.9130     0.3990     2.5480 h1         1 17X       0.061200
     71 H23         -4.8400     0.0940     1.1920 h1         1 17X       0.079700
     72 H24         -3.5650    -2.3700    -0.0290 hc         1 17X       0.062700
     73 H25         -6.0520    -0.8100    -0.8570 hc         1 17X       0.051450
     74 H26         -4.6010    -0.9930    -1.8250 hc         1 17X       0.051450
     75 H27         -6.3440    -2.5880    -2.5290 h1         1 17X       0.031700
     76 H28         -4.8930    -3.4070    -1.9560 h1         1 17X       0.031700
     77 H29         -6.9700    -4.3010    -1.0550 hn         1 17X       0.358800
     78 H31         -6.4980    -4.3020     1.2420 h1         1 17X       0.031700
     79 H32         -4.9940    -4.4700     0.3430 h1         1 17X       0.031700
     80 H33         -4.7320    -2.8090     2.0870 hc         1 17X       0.051450
     81 H34         -6.1320    -1.9000     1.5280 hc         1 17X       0.051450
     82 H35         -2.0360    -1.9630    -1.1670 ha         1 17X       0.139000
     83 H36         -0.1220    -1.7760    -2.6670 ha         1 17X       0.129000
     84 H37          0.8350     0.4150    -3.2710 ha         1 17X       0.136000
     85 H38         -0.1800     2.5080    -2.4110 ha         1 17X       0.146000
     86 H39         -2.8640     3.7930     1.7450 ha         1 17X       0.142000
     87 H40         -4.5130     5.1060     3.0230 ha         1 17X       0.136000
     88 H41         -6.9310     4.6480     2.7690 ha         1 17X       0.134000
     89 H42         -7.6910     2.8790     1.2100 ha         1 17X       0.136000
     90 H43         -6.0520     1.5790    -0.0760 ha         1 17X       0.142000
@<TRIPOS>BOND
     1     1     2 ar  
     2     1     6 ar  
     3     1    49 1   
     4     2     3 ar  
     5     2    50 1   
     6     3     4 ar  
     7     3    51 1   
     8     4     5 ar  
     9     4    52 1   
    10     5     6 ar  
    11     5    53 1   
    12     6     7 1   
    13     7     8 1   
    14     7    54 1   
    15     7    55 1   
    16     8     9 1   
    17     8    16 1   
    18     9    10 ar  
    19     9    14 ar  
    20    10    11 ar  
    21    10    56 1   
    22    11    12 ar  
    23    11    57 1   
    24    12    13 ar  
    25    12    58 1   
    26    13    14 ar  
    27    13    59 1   
    28    14    15 1   
    29    15    16 2   
    30    16    17 1   
    31    17    18 1   
    32    17    20 1   
    33    18    19 1   
    34    18    60 1   
    35    18    61 1   
    36    19    22 1   
    37    19    62 1   
    38    19    63 1   
    39    20    21 1   
    40    20    64 1   
    41    20    65 1   
    42    21    22 1   
    43    21    66 1   
    44    21    67 1   
    45    22    23 1   
    46    22    68 1   
    47    23    24 2   
    48    23    25 1   
    49    25    26 1   
    50    26    27 1   
    51    26    69 1   
    52    26    70 1   
    53    27    28 1   
    54    27    34 1   
    55    27    71 1   
    56    28    29 1   
    57    28    33 1   
    58    28    72 1   
    59    29    30 1   
    60    29    73 1   
    61    29    74 1   
    62    30    31 1   
    63    30    75 1   
    64    30    76 1   
    65    31    32 1   
    66    31    77 1   
    67    32    33 1   
    68    32    78 1   
    69    32    79 1   
    70    33    80 1   
    71    33    81 1   
    72    34    35 1   
    73    34    42 1   
    74    35    36 ar  
    75    35    40 ar  
    76    36    37 ar  
    77    36    82 1   
    78    37    38 ar  
    79    37    83 1   
    80    38    39 ar  
    81    38    84 1   
    82    39    40 ar  
    83    39    85 1   
    84    40    41 1   
    85    41    42 2   
    86    42    43 1   
    87    43    44 ar  
    88    43    48 ar  
    89    44    45 ar  
    90    44    86 1   
    91    45    46 ar  
    92    45    87 1   
    93    46    47 ar  
    94    46    88 1   
    95    47    48 ar  
    96    47    89 1   
    97    48    90 1   
@<TRIPOS>SUBSTRUCTURE
     1 17X         1 TEMP              0 ****  ****    0 ROOT
