@<TRIPOS>MOLECULE
17X
   90    97     1     0     0
SMALL
No Charge or Current Charge


@<TRIPOS>ATOM
      1 CAI          3.0940     2.5450    -0.3970 ca         1 17X      -0.101000
      2 CAJ          2.3970     3.1780    -1.4400 ca         1 17X      -0.109500
      3 CAK          2.8200     3.0150    -2.7690 ca         1 17X      -0.109000
      4 CAL          3.9440     2.2210    -3.0540 ca         1 17X      -0.109500
      5 CAM          4.6400     1.5850    -2.0110 ca         1 17X      -0.101000
      6 CAH          4.2160     1.7380    -0.6740 ca         1 17X      -0.113300
      7 CAG          4.9300     1.0190     0.4710 c3         1 17X       0.124900
      8 NAD          5.3940    -0.3440     0.1470 na         1 17X      -0.195600
      9 CAC          6.7030    -0.7010    -0.0520 ca         1 17X      -0.084200
     10 CAF          7.8080     0.1060    -0.3710 ca         1 17X      -0.111000
     11 CAE          9.0590    -0.5230    -0.5310 ca         1 17X      -0.104000
     12 CAX          9.1770    -1.9230    -0.3750 ca         1 17X      -0.130000
     13 CAW          8.0440    -2.7040    -0.0610 ca         1 17X      -0.062000
     14 CAV          6.8060    -2.0620     0.0940 ca         1 17X       0.091400
     15 NAY          5.5870    -2.6500     0.3960 nc         1 17X      -0.629100
     16 CAB          4.7790    -1.5800     0.4060 cd         1 17X       0.628700
     17 NAA          3.4240    -1.6810     0.7160 nh         1 17X      -0.716600
     18 CAR          2.4040    -1.1090    -0.1970 c6         1 17X       0.200300
     19 CAQ          1.2700    -0.4830     0.6380 c6         1 17X      -0.075900
     20 CAN          2.9060    -2.7830     1.5720 c6         1 17X       0.200300
     21 CAO          1.7160    -2.2840     2.4370 c6         1 17X      -0.075900
     22 CAP          0.6500    -1.5560     1.5700 c6         1 17X      -0.121700
     23 CAS         -0.5800    -1.0310     2.3270 c          1 17X       0.600100
     24 OAT         -0.4900    -0.3930     3.3670 o          1 17X      -0.479000
     25 OAU         -1.7160    -1.0900     1.5660 os         1 17X      -0.449100
     26 CBP         -2.8910    -0.3980     2.0190 c3         1 17X       0.146600
     27 CBO         -3.9250    -0.3430     0.8580 c3         1 17X       0.096300
     28 CBQ         -4.5240    -1.7340     0.4300 c6         1 17X      -0.066700
     29 CBR         -5.4110    -1.6410    -0.8500 c6         1 17X      -0.075900
     30 CBS         -6.0150    -3.0160    -1.2250 c6         1 17X       0.160300
     31 NBV         -6.7850    -3.5890    -0.0970 n7         1 17X      -0.863400
     32 CBT         -5.9670    -3.7440     1.1270 c6         1 17X       0.160300
     33 CBU         -5.3570    -2.3920     1.5720 c6         1 17X      -0.075900
     34 NBH         -3.4520     0.5490    -0.2460 na         1 17X      -0.173600
     35 CBD         -2.3840     0.3030    -1.0910 ca         1 17X      -0.063200
     36 CBE         -1.7910    -0.9100    -1.4920 ca         1 17X      -0.102000
     37 CAZ         -0.6990    -0.8630    -2.3830 ca         1 17X      -0.109000
     38 CBA         -0.2200     0.3780    -2.8550 ca         1 17X      -0.136000
     39 CBB         -0.8430     1.5750    -2.4500 ca         1 17X      -0.054000
     40 CBC         -1.9350     1.5050    -1.5700 ca         1 17X       0.060400
     41 NBF         -2.6780     2.5640    -1.0940 nc         1 17X      -0.565100
     42 CBG         -3.5970     1.9550    -0.3180 cd         1 17X       0.462400
     43 CBI         -4.6080     2.7550     0.4090 ca         1 17X      -0.120900
     44 CBJ         -4.2760     4.0310     0.9170 ca         1 17X      -0.083000
     45 CBK         -5.2430     4.8160     1.5710 ca         1 17X      -0.114000
     46 CBL         -6.5590     4.3460     1.7020 ca         1 17X      -0.096000
     47 CBM         -6.9110     3.0970     1.1670 ca         1 17X      -0.114000
     48 CBN         -5.9450     2.3120     0.5140 ca         1 17X      -0.083000
     49 H1           2.7520     2.6740     0.6280 ha         1 17X       0.120500
     50 H2           1.5270     3.7930    -1.2180 ha         1 17X       0.116000
     51 H3           2.2800     3.5040    -3.5770 ha         1 17X       0.116000
     52 H4           4.2740     2.0960    -4.0820 ha         1 17X       0.116000
     53 H5           5.5050     0.9690    -2.2480 ha         1 17X       0.120500
     54 H6           5.7870     1.6240     0.7920 h1         1 17X       0.072200
     55 H7           4.2520     0.9470     1.3310 h1         1 17X       0.072200
     56 H8           7.7080     1.1810    -0.4950 ha         1 17X       0.119000
     57 H9           9.9360     0.0720    -0.7770 ha         1 17X       0.111000
     58 H10         10.1460    -2.4020    -0.5000 ha         1 17X       0.112000
     59 H11          8.1260    -3.7810     0.0570 ha         1 17X       0.126000
     60 H12          2.8320    -0.3590    -0.8730 h1         1 17X       0.053450
     61 H13          1.9890    -1.9010    -0.8370 h1         1 17X       0.053450
     62 H14          1.6660     0.3480     1.2360 hc         1 17X       0.065950
     63 H15          0.5080    -0.0540    -0.0230 hc         1 17X       0.065950
     64 H16          2.5730    -3.6210     0.9410 h1         1 17X       0.053450
     65 H17          3.6930    -3.1680     2.2370 h1         1 17X       0.053450
     66 H18          1.2640    -3.1300     2.9730 hc         1 17X       0.065950
     67 H19          2.0970    -1.5950     3.2040 hc         1 17X       0.065950
     68 H20          0.2320    -2.3020     0.8790 hc         1 17X       0.074700
     69 H21         -3.3210    -0.8910     2.9000 h1         1 17X       0.061200
     70 H22         -2.6450     0.6340     2.3050 h1         1 17X       0.061200
     71 H23         -4.7780     0.1780     1.3030 h1         1 17X       0.079700
     72 H24         -3.6830    -2.4050     0.2220 hc         1 17X       0.062700
     73 H25         -6.2240    -0.9210    -0.6920 hc         1 17X       0.051450
     74 H26         -4.8250    -1.2710    -1.7010 hc         1 17X       0.051450
     75 H27         -6.6740    -2.9020    -2.0990 h1         1 17X       0.031700
     76 H28         -5.2060    -3.7070    -1.5060 h1         1 17X       0.031700
     77 H29         -7.1430    -4.5120    -0.3760 hn         1 17X       0.414000
     78 H31         -6.5910    -4.1510     1.9360 h1         1 17X       0.031700
     79 H32         -5.1580    -4.4660     0.9370 h1         1 17X       0.031700
     80 H33         -4.7310    -2.5670     2.4570 hc         1 17X       0.051450
     81 H34         -6.1640    -1.7170     1.8870 hc         1 17X       0.051450
     82 H35         -2.1420    -1.8690    -1.1340 ha         1 17X       0.121000
     83 H36         -0.2200    -1.7860    -2.7020 ha         1 17X       0.111000
     84 H37          0.6280     0.4110    -3.5360 ha         1 17X       0.118000
     85 H38         -0.4920     2.5350    -2.8170 ha         1 17X       0.128000
     86 H39         -3.2610     4.4120     0.8200 ha         1 17X       0.124000
     87 H40         -4.9710     5.7900     1.9720 ha         1 17X       0.118000
     88 H41         -7.3080     4.9540     2.2060 ha         1 17X       0.116000
     89 H42         -7.9350     2.7400     1.2490 ha         1 17X       0.118000
     90 H43         -6.2460     1.3630     0.0760 ha         1 17X       0.124000
@<TRIPOS>BOND
     1     1     2 ar  
     2     1     6 ar  
     3     1    49 1   
     4     2     3 ar  
     5     2    50 1   
     6     3     4 ar  
     7     3    51 1   
     8     4     5 ar  
     9     4    52 1   
    10     5     6 ar  
    11     5    53 1   
    12     6     7 1   
    13     7     8 1   
    14     7    54 1   
    15     7    55 1   
    16     8     9 1   
    17     8    16 1   
    18     9    10 ar  
    19     9    14 ar  
    20    10    11 ar  
    21    10    56 1   
    22    11    12 ar  
    23    11    57 1   
    24    12    13 ar  
    25    12    58 1   
    26    13    14 ar  
    27    13    59 1   
    28    14    15 1   
    29    15    16 2   
    30    16    17 1   
    31    17    18 1   
    32    17    20 1   
    33    18    19 1   
    34    18    60 1   
    35    18    61 1   
    36    19    22 1   
    37    19    62 1   
    38    19    63 1   
    39    20    21 1   
    40    20    64 1   
    41    20    65 1   
    42    21    22 1   
    43    21    66 1   
    44    21    67 1   
    45    22    23 1   
    46    22    68 1   
    47    23    24 2   
    48    23    25 1   
    49    25    26 1   
    50    26    27 1   
    51    26    69 1   
    52    26    70 1   
    53    27    28 1   
    54    27    34 1   
    55    27    71 1   
    56    28    29 1   
    57    28    33 1   
    58    28    72 1   
    59    29    30 1   
    60    29    73 1   
    61    29    74 1   
    62    30    31 1   
    63    30    75 1   
    64    30    76 1   
    65    31    32 1   
    66    31    77 1   
    67    32    33 1   
    68    32    78 1   
    69    32    79 1   
    70    33    80 1   
    71    33    81 1   
    72    34    35 1   
    73    34    42 1   
    74    35    36 ar  
    75    35    40 ar  
    76    36    37 ar  
    77    36    82 1   
    78    37    38 ar  
    79    37    83 1   
    80    38    39 ar  
    81    38    84 1   
    82    39    40 ar  
    83    39    85 1   
    84    40    41 1   
    85    41    42 2   
    86    42    43 1   
    87    43    44 ar  
    88    43    48 ar  
    89    44    45 ar  
    90    44    86 1   
    91    45    46 ar  
    92    45    87 1   
    93    46    47 ar  
    94    46    88 1   
    95    47    48 ar  
    96    47    89 1   
    97    48    90 1   
@<TRIPOS>SUBSTRUCTURE
     1 17X         1 TEMP              0 ****  ****    0 ROOT
