@<TRIPOS>MOLECULE
17Y
   17    17     1     0     0
SMALL
No Charge or Current Charge


@<TRIPOS>ATOM
      1 OAA         -1.9070    -0.8720     0.2810 oh         1 17Y      -0.635500
      2 CAF         -0.5380    -0.5580     0.5570 c5         1 17Y       0.171300
      3 CAD          0.4430    -1.2670    -0.4160 c5         1 17Y      -0.119400
      4 CAC          1.7620    -0.4340    -0.2920 c5         1 17Y      -0.067400
      5 CAE          1.3690     0.8440     0.5200 c5         1 17Y      -0.119400
      6 CAG         -0.1680     0.9500     0.3310 c5         1 17Y       0.171300
      7 OAB         -0.5010     1.4610    -0.9700 oh         1 17Y      -0.635500
      8 H1          -1.9870    -1.8490     0.3300 ho         1 17Y       0.437000
      9 H2          -0.3030    -0.8410     1.5930 h1         1 17Y       0.035700
     10 H3           0.5940    -2.3200    -0.1530 hc         1 17Y       0.050200
     11 H4           0.0690    -1.2470    -1.4470 hc         1 17Y       0.050200
     12 H5           2.5530    -0.9970     0.2180 hc         1 17Y       0.044200
     13 H6           2.1510    -0.1740    -1.2830 hc         1 17Y       0.044200
     14 H7           1.6180     0.7210     1.5810 hc         1 17Y       0.050200
     15 H8           1.9010     1.7380     0.1750 hc         1 17Y       0.050200
     16 H9          -0.6140     1.5850     1.1090 h1         1 17Y       0.035700
     17 H10         -0.1760     2.3870    -0.9990 ho         1 17Y       0.437000
@<TRIPOS>BOND
     1     1     2 1   
     2     1     8 1   
     3     2     3 1   
     4     2     6 1   
     5     2     9 1   
     6     3     4 1   
     7     3    10 1   
     8     3    11 1   
     9     4     5 1   
    10     4    12 1   
    11     4    13 1   
    12     5     6 1   
    13     5    14 1   
    14     5    15 1   
    15     6     7 1   
    16     6    16 1   
    17     7    17 1   
@<TRIPOS>SUBSTRUCTURE
     1 17Y         1 TEMP              0 ****  ****    0 ROOT
