@<TRIPOS>MOLECULE
17Y
   17    17     1     0     0
SMALL
bcc


@<TRIPOS>ATOM
      1 OAA         -1.8820    -0.7640     0.1760 oh         1 17Y      -0.573300
      2 CAF         -0.5320    -0.5530     0.5040 c5         1 17Y       0.148100
      3 CAD          0.4850    -1.2690    -0.3940 c5         1 17Y      -0.119400
      4 CAC          1.7660    -0.4140    -0.3040 c5         1 17Y      -0.067400
      5 CAE          1.3700     0.8370     0.5080 c5         1 17Y      -0.119400
      6 CAG         -0.1470     0.9150     0.3880 c5         1 17Y       0.148100
      7 OAB         -0.5600     1.3730    -0.8820 oh         1 17Y      -0.573300
      8 H1          -2.0770    -1.6960     0.3110 ho         1 17Y       0.398000
      9 H2          -0.3380    -0.8420     1.5480 h1         1 17Y       0.035700
     10 H3           0.6460    -2.3010    -0.0800 hc         1 17Y       0.050200
     11 H4           0.1070    -1.2990    -1.4180 hc         1 17Y       0.050200
     12 H5           2.5840    -0.9500     0.1780 hc         1 17Y       0.044200
     13 H6           2.1160    -0.1390    -1.2990 hc         1 17Y       0.044200
     14 H7           1.6390     0.7120     1.5600 hc         1 17Y       0.050200
     15 H8           1.8670     1.7480     0.1660 hc         1 17Y       0.050200
     16 H9          -0.5930     1.5200     1.1900 h1         1 17Y       0.035700
     17 H10         -0.1840     2.2480    -1.0180 ho         1 17Y       0.398000
@<TRIPOS>BOND
     1     1     2 1   
     2     1     8 1   
     3     2     3 1   
     4     2     6 1   
     5     2     9 1   
     6     3     4 1   
     7     3    10 1   
     8     3    11 1   
     9     4     5 1   
    10     4    12 1   
    11     4    13 1   
    12     5     6 1   
    13     5    14 1   
    14     5    15 1   
    15     6     7 1   
    16     6    16 1   
    17     7    17 1   
@<TRIPOS>SUBSTRUCTURE
     1 17Y         1 TEMP              0 ****  ****    0 ROOT
