@<TRIPOS>MOLECULE
17Z
   23    24     1     0     0
SMALL
No Charge or Current Charge


@<TRIPOS>ATOM
      1 C8           1.4100     1.3770    -0.0880 ca         1 17Z      -0.176000
      2 C13          0.0270     1.6170    -0.0820 ca         1 17Z       0.120100
      3 O20         -0.4130     2.9120    -0.0850 oh         1 17Z      -0.534100
      4 C12         -0.8830     0.5340    -0.0730 ca         1 17Z      -0.030000
      5 C17         -2.2790     0.7580    -0.0660 ca         1 17Z      -0.084000
      6 C16         -3.1750    -0.3220    -0.0570 ca         1 17Z      -0.111000
      7 C15         -2.6880    -1.6370    -0.0550 ca         1 17Z      -0.111000
      8 C14         -1.3040    -1.8730    -0.0610 ca         1 17Z      -0.084000
      9 C11         -0.3880    -0.7940    -0.0700 ca         1 17Z      -0.026000
     10 C10          1.0100    -1.0250    -0.0770 ca         1 17Z       0.122100
     11 O19          1.5010    -2.3040    -0.0750 oh         1 17Z      -0.539100
     12 C9           1.9120     0.0620    -0.0860 ca         1 17Z      -0.143300
     13 C18          3.4250    -0.1560    -0.0930 c3         1 17Z      -0.047800
     14 H1           2.1020     2.2160    -0.0950 ha         1 17Z       0.110000
     15 H2           0.3670     3.5060    -0.0910 ho         1 17Z       0.463000
     16 H3          -2.6790     1.7700    -0.0680 ha         1 17Z       0.128000
     17 H4          -4.2480    -0.1390    -0.0520 ha         1 17Z       0.113000
     18 H5          -3.3820    -2.4740    -0.0480 ha         1 17Z       0.113000
     19 H6          -0.9500    -2.9020    -0.0590 ha         1 17Z       0.128000
     20 H7           2.4790    -2.2570    -0.0800 ho         1 17Z       0.465000
     21 H8           3.7420    -0.7160    -0.9810 hc         1 17Z       0.041367
     22 H9           3.9730     0.7940    -0.1000 hc         1 17Z       0.041367
     23 H10          3.7510    -0.7100     0.7960 hc         1 17Z       0.041367
@<TRIPOS>BOND
     1     1     2 ar  
     2     1    12 ar  
     3     1    14 1   
     4     2     3 1   
     5     2     4 ar  
     6     3    15 1   
     7     4     5 ar  
     8     4     9 ar  
     9     5     6 ar  
    10     5    16 1   
    11     6     7 ar  
    12     6    17 1   
    13     7     8 ar  
    14     7    18 1   
    15     8     9 ar  
    16     8    19 1   
    17     9    10 ar  
    18    10    11 1   
    19    10    12 ar  
    20    11    20 1   
    21    12    13 1   
    22    13    21 1   
    23    13    22 1   
    24    13    23 1   
@<TRIPOS>SUBSTRUCTURE
     1 17Z         1 TEMP              0 ****  ****    0 ROOT
