@<TRIPOS>MOLECULE
17Z
   23    24     1     0     0
SMALL
bcc


@<TRIPOS>ATOM
      1 C8           1.4020     1.3750    -0.0870 ca         1 17Z      -0.194000
      2 C13          0.0560     1.6280    -0.0800 ca         1 17Z       0.120100
      3 O20         -0.4650     2.8760    -0.0810 oh         1 17Z      -0.495100
      4 C12         -0.8660     0.5480    -0.0720 ca         1 17Z      -0.030000
      5 C17         -2.2650     0.7560    -0.0660 ca         1 17Z      -0.102000
      6 C16         -3.1300    -0.3050    -0.0590 ca         1 17Z      -0.129000
      7 C15         -2.6340    -1.6230    -0.0560 ca         1 17Z      -0.129000
      8 C14         -1.2850    -1.8550    -0.0610 ca         1 17Z      -0.102000
      9 C11         -0.3640    -0.7810    -0.0690 ca         1 17Z      -0.026000
     10 C10          1.0390    -0.9990    -0.0760 ca         1 17Z       0.122100
     11 O19          1.4460    -2.2910    -0.0730 oh         1 17Z      -0.500100
     12 C9           1.9160     0.0600    -0.0860 ca         1 17Z      -0.143300
     13 C18          3.4010    -0.1680    -0.0950 c3         1 17Z      -0.047800
     14 H1           2.1040     2.2020    -0.0940 ha         1 17Z       0.128000
     15 H2           0.2420     3.5300    -0.0960 ho         1 17Z       0.424000
     16 H3          -2.6560     1.7640    -0.0680 ha         1 17Z       0.146000
     17 H4          -4.1980    -0.1320    -0.0550 ha         1 17Z       0.131000
     18 H5          -3.3250    -2.4550    -0.0500 ha         1 17Z       0.131000
     19 H6          -0.9220    -2.8740    -0.0590 ha         1 17Z       0.146000
     20 H7           2.4080    -2.3460    -0.0710 ho         1 17Z       0.426000
     21 H8           3.7260    -0.7220    -0.9800 hc         1 17Z       0.041367
     22 H9           3.9420     0.7760    -0.0960 hc         1 17Z       0.041367
     23 H10          3.7380    -0.7270     0.7820 hc         1 17Z       0.041367
@<TRIPOS>BOND
     1     1     2 ar  
     2     1    12 ar  
     3     1    14 1   
     4     2     3 1   
     5     2     4 ar  
     6     3    15 1   
     7     4     5 ar  
     8     4     9 ar  
     9     5     6 ar  
    10     5    16 1   
    11     6     7 ar  
    12     6    17 1   
    13     7     8 ar  
    14     7    18 1   
    15     8     9 ar  
    16     8    19 1   
    17     9    10 ar  
    18    10    11 1   
    19    10    12 ar  
    20    11    20 1   
    21    12    13 1   
    22    13    21 1   
    23    13    22 1   
    24    13    23 1   
@<TRIPOS>SUBSTRUCTURE
     1 17Z         1 TEMP              0 ****  ****    0 ROOT
