@<TRIPOS>MOLECULE
180
   59    62     1     0     0
SMALL
abcg2


@<TRIPOS>ATOM
      1 O1           0.9490    -0.6180     7.4030 o          1 180      -0.705500
      2 C1           1.6500     0.0290     6.6040 c          1 180       0.716000
      3 O2           2.6900     0.6650     6.8380 o          1 180      -0.705500
      4 C2           1.2110     0.0050     5.1180 c3         1 180       0.016500
      5 C3           2.2370    -0.7670     4.2870 c3         1 180       0.117000
      6 N1           1.8700    -0.8600     2.8950 ns         1 180      -0.486900
      7 C4           2.1270     0.1240     2.0140 c          1 180       0.622700
      8 O3           2.7390     1.1430     2.3050 o          1 180      -0.589100
      9 C5           1.6330    -0.0810     0.6370 cc         1 180      -0.254600
     10 C6           1.5090     0.9050    -0.2930 cd         1 180      -0.032000
     11 C7           0.9480     0.4350    -1.5090 cd         1 180      -0.097000
     12 C8           0.5790     1.0000    -2.7680 cd         1 180      -0.078000
     13 C9           0.0410     0.0880    -3.6150 cc         1 180      -0.195300
     14 C10         -0.4410     0.2930    -5.0120 c3         1 180      -0.007100
     15 C11          0.3620    -0.4920    -6.0510 c3         1 180      -0.072400
     16 C12          0.0100    -0.1330    -7.4930 c6         1 180      -0.060700
     17 C13          0.9350    -0.8540    -8.4720 c6         1 180      -0.073400
     18 C14          0.5700    -0.5330    -9.9130 c6         1 180       0.160300
     19 N2          -0.8150    -0.8920   -10.1660 n7         1 180      -0.861400
     20 C15         -1.7250    -0.1460    -9.3160 c6         1 180       0.160300
     21 C16         -1.4430    -0.4450    -7.8500 c6         1 180      -0.073400
     22 S1          -0.0270    -1.5100    -2.9000 ss         1 180       0.196000
     23 C17          0.6690    -0.9180    -1.4530 cc         1 180      -0.304000
     24 S2           1.0910    -1.6280     0.0420 ss         1 180       0.246000
     25 N3          -0.1000    -0.6200     4.9530 n7         1 180      -0.861300
     26 S3          -1.4090     0.3650     4.7910 sy         1 180       1.143600
     27 O4          -2.5750    -0.4630     5.0610 o          1 180      -0.557000
     28 O5          -1.2620     1.6210     5.5140 o          1 180      -0.557000
     29 C18         -1.3930     0.7520     3.0630 ca         1 180      -0.313500
     30 C19         -1.7030    -0.2360     2.1380 ca         1 180       0.020000
     31 C20         -1.7910     0.1290     0.8090 ca         1 180      -0.196000
     32 C21         -1.5610     1.4570     0.4700 ca         1 180       0.375900
     33 N4          -1.2540     2.3970     1.3530 nb         1 180      -0.693000
     34 C22         -1.1720     2.0510     2.6310 ca         1 180       0.435900
     35 H2           1.1820     1.0320     4.7470 h1         1 180       0.069700
     36 H31          3.2090    -0.2880     4.3760 h1         1 180       0.068200
     37 H32          2.3370    -1.7840     4.6690 h1         1 180       0.068200
     38 HN1          1.2060    -1.5800     2.6590 hn         1 180       0.304500
     39 H6           1.7820     1.9330    -0.1020 ha         1 180       0.162000
     40 H8           0.7070     2.0420    -3.0290 ha         1 180       0.136000
     41 H101        -1.5010     0.0330    -5.0810 hc         1 180       0.049700
     42 H102        -0.3720     1.3620    -5.2280 hc         1 180       0.049700
     43 H111         1.4270    -0.3030    -5.8890 hc         1 180       0.047200
     44 H112         0.2120    -1.5680    -5.9040 hc         1 180       0.047200
     45 H12          0.1650     0.9480    -7.6170 hc         1 180       0.041700
     46 H131         1.9760    -0.5740    -8.2870 hc         1 180       0.047200
     47 H132         0.8610    -1.9360    -8.3140 hc         1 180       0.047200
     48 H141         0.7670     0.5370   -10.0970 h1         1 180       0.026200
     49 H142         1.2100    -1.0930   -10.5980 h1         1 180       0.026200
     50 HN2         -1.0370    -0.7120   -11.1370 hn         1 180       0.406000
     51 H151        -1.6490     0.9440    -9.4730 h1         1 180       0.026200
     52 H152        -2.7510    -0.4280    -9.5630 h1         1 180       0.026200
     53 H161        -1.6460    -1.5020    -7.6470 hc         1 180       0.047200
     54 H162        -2.1320     0.1360    -7.2320 hc         1 180       0.047200
     55 HN3         -0.2660    -1.2640     5.7290 hn         1 180       0.507000
     56 H19         -1.8840    -1.2590     2.4430 ha         1 180       0.131000
     57 H20         -2.0350    -0.5950     0.0450 ha         1 180       0.119000
     58 H21         -1.6330     1.7690    -0.5650 h4         1 180       0.011100
     59 H22         -0.9300     2.8390     3.3350 h4         1 180       0.052100
@<TRIPOS>BOND
     1     1     2 1   
     2     2     3 1   
     3     2     4 1   
     4     4     5 1   
     5     4    25 1   
     6     4    35 1   
     7     5     6 1   
     8     5    36 1   
     9     5    37 1   
    10     6     7 1   
    11     6    38 1   
    12     7     8 2   
    13     7     9 1   
    14     9    10 2   
    15     9    24 1   
    16    10    11 1   
    17    10    39 1   
    18    11    12 1   
    19    11    23 2   
    20    12    13 2   
    21    12    40 1   
    22    13    14 1   
    23    13    22 1   
    24    14    15 1   
    25    14    41 1   
    26    14    42 1   
    27    15    16 1   
    28    15    43 1   
    29    15    44 1   
    30    16    17 1   
    31    16    21 1   
    32    16    45 1   
    33    17    18 1   
    34    17    46 1   
    35    17    47 1   
    36    18    19 1   
    37    18    48 1   
    38    18    49 1   
    39    19    20 1   
    40    19    50 1   
    41    20    21 1   
    42    20    51 1   
    43    20    52 1   
    44    21    53 1   
    45    21    54 1   
    46    22    23 1   
    47    23    24 1   
    48    25    26 1   
    49    25    55 1   
    50    26    27 2   
    51    26    28 2   
    52    26    29 1   
    53    29    30 ar  
    54    29    34 ar  
    55    30    31 ar  
    56    30    56 1   
    57    31    32 ar  
    58    31    57 1   
    59    32    33 ar  
    60    32    58 1   
    61    33    34 ar  
    62    34    59 1   
@<TRIPOS>SUBSTRUCTURE
     1 180         1 TEMP              0 ****  ****    0 ROOT
