@<TRIPOS>MOLECULE
180
   59    62     1     0     0
SMALL
No Charge or Current Charge


@<TRIPOS>ATOM
      1 O1           1.1660    -0.6910     7.3360 o          1 180      -0.705500
      2 C1           1.5380     0.1620     6.5390 c          1 180       0.716000
      3 O2           2.1160     1.1890     6.8680 o          1 180      -0.705500
      4 C2           1.1830    -0.0460     5.0260 c3         1 180       0.016500
      5 C3           2.3340    -0.7910     4.3150 c3         1 180       0.117000
      6 N1           2.0860    -0.9010     2.8740 ns         1 180      -0.486900
      7 C4           2.2180     0.1400     1.9860 c          1 180       0.622700
      8 O3           2.7500     1.1980     2.2950 o          1 180      -0.589100
      9 C5           1.6570    -0.1330     0.6530 cc         1 180      -0.254600
     10 C6           1.6420     0.7970    -0.3750 cd         1 180      -0.032000
     11 C7           0.9670     0.2890    -1.5120 cd         1 180      -0.097000
     12 C8           0.6710     0.8640    -2.7710 cd         1 180      -0.078000
     13 C9          -0.0370    -0.0120    -3.5770 cc         1 180      -0.195300
     14 C10         -0.5360     0.2360    -4.9750 c3         1 180      -0.007100
     15 C11          0.3380    -0.4540    -6.0470 c3         1 180      -0.072400
     16 C12         -0.0390    -0.1370    -7.5270 c6         1 180      -0.060700
     17 C13          0.9910    -0.7600    -8.5100 c6         1 180      -0.073400
     18 C14          0.6110    -0.4760    -9.9850 c6         1 180       0.160300
     19 N2          -0.7600    -0.9490   -10.2870 n7         1 180      -0.861400
     20 C15         -1.7800    -0.3420    -9.4000 c6         1 180       0.160300
     21 C16         -1.4700    -0.6160    -7.9070 c6         1 180      -0.073400
     22 S1          -0.3440    -1.5670    -2.7570 ss         1 180       0.196000
     23 C17          0.5110    -0.9600    -1.3630 cc         1 180      -0.304000
     24 S2           0.8610    -1.6610     0.1980 ss         1 180       0.246000
     25 N3          -0.1170    -0.7760     4.7940 n7         1 180      -0.861300
     26 S3          -1.5380     0.0930     4.8000 sy         1 180       1.143600
     27 O4          -2.5870    -0.9230     4.8850 o          1 180      -0.557000
     28 O5          -1.3870     1.1450     5.8060 o          1 180      -0.557000
     29 C18         -1.5070     0.7640     3.1590 ca         1 180      -0.313500
     30 C19         -1.9120     0.0050     2.0480 ca         1 180       0.020000
     31 C20         -1.8450     0.6100     0.7860 ca         1 180      -0.196000
     32 C21         -1.3780     1.9290     0.6840 ca         1 180       0.375900
     33 N4          -0.9910     2.6580     1.7560 nb         1 180      -0.693000
     34 C22         -1.0530     2.0720     2.9770 ca         1 180       0.435900
     35 H2           1.1360     0.9560     4.5790 h1         1 180       0.069700
     36 H31          3.2790    -0.2560     4.4800 h1         1 180       0.068200
     37 H32          2.4380    -1.8000     4.7370 h1         1 180       0.068200
     38 HN1          1.5960    -1.7200     2.5430 hn         1 180       0.304500
     39 H6           2.0620     1.7970    -0.3080 ha         1 180       0.162000
     40 H8           0.9600     1.8680    -3.0660 ha         1 180       0.136000
     41 H101        -1.5700    -0.1210    -5.0550 hc         1 180       0.049700
     42 H102        -0.5620     1.3150    -5.1710 hc         1 180       0.049700
     43 H111         1.3790    -0.1540    -5.8710 hc         1 180       0.047200
     44 H112         0.3050    -1.5380    -5.8810 hc         1 180       0.047200
     45 H12          0.0030     0.9570    -7.6340 hc         1 180       0.041700
     46 H131         1.9950    -0.3600    -8.3100 hc         1 180       0.047200
     47 H132         1.0510    -1.8450    -8.3530 hc         1 180       0.047200
     48 H141         0.6740     0.6060   -10.1780 h1         1 180       0.026200
     49 H142         1.3270    -0.9760   -10.6530 h1         1 180       0.026200
     50 HN2         -0.9850    -0.7110   -11.2620 hn         1 180       0.406000
     51 H151        -1.8120     0.7440    -9.5730 h1         1 180       0.026200
     52 H152        -2.7710    -0.7470    -9.6510 h1         1 180       0.026200
     53 H161        -1.5720    -1.6900    -7.7040 hc         1 180       0.047200
     54 H162        -2.2230    -0.1070    -7.2920 hc         1 180       0.047200
     55 HN3         -0.2780    -1.3760     5.6060 hn         1 180       0.507000
     56 H19         -2.2610    -1.0210     2.1560 ha         1 180       0.131000
     57 H20         -2.1390     0.0680    -0.1080 ha         1 180       0.119000
     58 H21         -1.3110     2.4210    -0.2860 h4         1 180       0.011100
     59 H22         -0.7250     2.6830     3.8180 h4         1 180       0.052100
@<TRIPOS>BOND
     1     1     2 1   
     2     2     3 1   
     3     2     4 1   
     4     4     5 1   
     5     4    25 1   
     6     4    35 1   
     7     5     6 1   
     8     5    36 1   
     9     5    37 1   
    10     6     7 1   
    11     6    38 1   
    12     7     8 2   
    13     7     9 1   
    14     9    10 2   
    15     9    24 1   
    16    10    11 1   
    17    10    39 1   
    18    11    12 1   
    19    11    23 2   
    20    12    13 2   
    21    12    40 1   
    22    13    14 1   
    23    13    22 1   
    24    14    15 1   
    25    14    41 1   
    26    14    42 1   
    27    15    16 1   
    28    15    43 1   
    29    15    44 1   
    30    16    17 1   
    31    16    21 1   
    32    16    45 1   
    33    17    18 1   
    34    17    46 1   
    35    17    47 1   
    36    18    19 1   
    37    18    48 1   
    38    18    49 1   
    39    19    20 1   
    40    19    50 1   
    41    20    21 1   
    42    20    51 1   
    43    20    52 1   
    44    21    53 1   
    45    21    54 1   
    46    22    23 1   
    47    23    24 1   
    48    25    26 1   
    49    25    55 1   
    50    26    27 2   
    51    26    28 2   
    52    26    29 1   
    53    29    30 ar  
    54    29    34 ar  
    55    30    31 ar  
    56    30    56 1   
    57    31    32 ar  
    58    31    57 1   
    59    32    33 ar  
    60    32    58 1   
    61    33    34 ar  
    62    34    59 1   
@<TRIPOS>SUBSTRUCTURE
     1 180         1 TEMP              0 ****  ****    0 ROOT
