@<TRIPOS>MOLECULE
181
   34    35     1     0     0
SMALL
No Charge or Current Charge


@<TRIPOS>ATOM
      1 OAC          7.2940   159.7360    11.6400 oh         1 181      -0.707000
      2 CAJ          6.2200   160.5880    11.2120 c3         1 181       0.152600
      3 CAK          6.4380   162.0140    11.7700 c3         1 181       0.114600
      4 OAN          6.8800   161.8960    13.1420 os         1 181      -0.452000
      5 CAL          7.0400   163.1400    13.8530 c3         1 181       0.320000
      6 NAT          8.1890   163.8810    13.2960 n          1 181      -0.350000
      7 CAS          7.9400   164.9900    12.4670 c          1 181       0.616000
      8 OAB          6.8200   165.3630    12.1610 o          1 181      -0.553000
      9 NAM          9.0360   165.6520    12.0080 ns         1 181      -0.470500
     10 CAR         10.3480   165.3830    12.2460 c          1 181       0.594200
     11 OAA         11.2420   166.0640    11.7730 o          1 181      -0.499000
     12 CAI          9.4900   163.5060    13.6340 cc         1 181       0.067600
     13 CAQ         10.5540   164.2080    13.1140 cd         1 181      -0.209600
     14 SAO         12.1450   163.6300    13.6330 ss         1 181      -0.034600
     15 CAP         11.9760   162.1520    12.6360 ca         1 181      -0.093000
     16 CAH         11.9040   160.8940    13.2610 ca         1 181      -0.099500
     17 CAF         11.7600   159.7300    12.4860 ca         1 181      -0.099000
     18 CAD         11.6920   159.8210    11.0850 ca         1 181      -0.111000
     19 CAE         11.7700   161.0770    10.4580 ca         1 181      -0.099000
     20 CAG         11.9140   162.2420    11.2330 ca         1 181      -0.099500
     21 HAC          7.5810   160.1330    12.4980 ho         1 181       0.495000
     22 HAJ1         5.2600   160.2090    11.5890 h1         1 181       0.059700
     23 HAJ2         6.1560   160.6280    10.1160 h1         1 181       0.059700
     24 HAK1         5.4990   162.5800    11.7020 h1         1 181       0.041700
     25 HAK2         7.1940   162.5250    11.1590 h1         1 181       0.041700
     26 HAL1         7.2480   162.9580    14.9130 h2         1 181       0.087200
     27 HAL2         6.1350   163.7570    13.7930 h2         1 181       0.087200
     28 HAM          8.8500   166.4470    11.4170 hn         1 181       0.344500
     29 HAI          9.5470   162.6410    14.2890 h4         1 181       0.232000
     30 HAH         11.9560   160.8190    14.3450 ha         1 181       0.114000
     31 HAF         11.7010   158.7580    12.9710 ha         1 181       0.111000
     32 HAD         11.5800   158.9210    10.4850 ha         1 181       0.114000
     33 HAE         11.7200   161.1490     9.3740 ha         1 181       0.111000
     34 HAG         11.9760   163.2110    10.7430 ha         1 181       0.114000
@<TRIPOS>BOND
     1     1     2 1   
     2     1    21 1   
     3     2     3 1   
     4     2    22 1   
     5     2    23 1   
     6     3     4 1   
     7     3    24 1   
     8     3    25 1   
     9     4     5 1   
    10     5     6 1   
    11     5    26 1   
    12     5    27 1   
    13     6     7 1   
    14     6    12 1   
    15     7     8 2   
    16     7     9 1   
    17     9    10 1   
    18     9    28 1   
    19    10    11 2   
    20    10    13 1   
    21    12    13 2   
    22    12    29 1   
    23    13    14 1   
    24    14    15 1   
    25    15    16 ar  
    26    15    20 ar  
    27    16    17 ar  
    28    16    30 1   
    29    17    18 ar  
    30    17    31 1   
    31    18    19 ar  
    32    18    32 1   
    33    19    20 ar  
    34    19    33 1   
    35    20    34 1   
@<TRIPOS>SUBSTRUCTURE
     1 181         1 TEMP              0 ****  ****    0 ROOT
