@<TRIPOS>MOLECULE
181
   34    35     1     0     0
SMALL
abcg2


@<TRIPOS>ATOM
      1 OAC          7.3940   160.3720    11.3970 oh         1 181      -0.707000
      2 CAJ          6.1180   160.9500    11.1230 c3         1 181       0.152600
      3 CAK          6.0170   162.3920    11.5620 c3         1 181       0.114600
      4 OAN          6.0860   162.4450    12.9910 os         1 181      -0.452000
      5 CAL          6.3210   163.7160    13.5170 c3         1 181       0.320000
      6 NAT          7.7130   164.1410    13.2750 n          1 181      -0.350000
      7 CAS          7.9770   165.2110    12.4260 c          1 181       0.616000
      8 OAB          7.1060   165.8910    11.9150 o          1 181      -0.553000
      9 NAM          9.3160   165.4390    12.2070 ns         1 181      -0.470500
     10 CAR         10.4040   164.7200    12.6940 c          1 181       0.594200
     11 OAA         11.5390   165.0380    12.3780 o          1 181      -0.499000
     12 CAI          8.7170   163.3830    13.8000 cc         1 181       0.067600
     13 CAQ         10.0300   163.6120    13.5650 cd         1 181      -0.209600
     14 SAO         11.2630   162.6250    14.3350 ss         1 181      -0.034600
     15 CAP         11.8150   161.5660    13.0120 ca         1 181      -0.093000
     16 CAH         12.9900   160.8440    13.2340 ca         1 181      -0.099500
     17 CAF         13.4570   159.9650    12.2650 ca         1 181      -0.099000
     18 CAD         12.7670   159.8070    11.0660 ca         1 181      -0.111000
     19 CAE         11.6020   160.5350    10.8460 ca         1 181      -0.099000
     20 CAG         11.1210   161.4100    11.8150 ca         1 181      -0.099500
     21 HAC          8.0550   160.8190    10.8540 ho         1 181       0.495000
     22 HAJ1         5.3880   160.3460    11.6640 h1         1 181       0.059700
     23 HAJ2         5.8830   160.8960    10.0550 h1         1 181       0.059700
     24 HAK1         5.0700   162.8260    11.2230 h1         1 181       0.041700
     25 HAK2         6.8380   162.9660    11.1200 h1         1 181       0.041700
     26 HAL1         6.1680   163.6480    14.5910 h2         1 181       0.087200
     27 HAL2         5.6780   164.4810    13.0840 h2         1 181       0.087200
     28 HAM          9.5280   166.2150    11.5920 hn         1 181       0.344500
     29 HAI          8.3930   162.5600    14.4210 h4         1 181       0.232000
     30 HAH         13.5370   160.9710    14.1610 ha         1 181       0.114000
     31 HAF         14.3660   159.4060    12.4470 ha         1 181       0.111000
     32 HAD         13.1350   159.1250    10.3110 ha         1 181       0.114000
     33 HAE         11.0560   160.4220     9.9180 ha         1 181       0.111000
     34 HAG         10.2070   161.9590    11.6350 ha         1 181       0.114000
@<TRIPOS>BOND
     1     1     2 1   
     2     1    21 1   
     3     2     3 1   
     4     2    22 1   
     5     2    23 1   
     6     3     4 1   
     7     3    24 1   
     8     3    25 1   
     9     4     5 1   
    10     5     6 1   
    11     5    26 1   
    12     5    27 1   
    13     6     7 1   
    14     6    12 1   
    15     7     8 2   
    16     7     9 1   
    17     9    10 1   
    18     9    28 1   
    19    10    11 2   
    20    10    13 1   
    21    12    13 2   
    22    12    29 1   
    23    13    14 1   
    24    14    15 1   
    25    15    16 ar  
    26    15    20 ar  
    27    16    17 ar  
    28    16    30 1   
    29    17    18 ar  
    30    17    31 1   
    31    18    19 ar  
    32    18    32 1   
    33    19    20 ar  
    34    19    33 1   
    35    20    34 1   
@<TRIPOS>SUBSTRUCTURE
     1 181         1 TEMP              0 ****  ****    0 ROOT
