@<TRIPOS>MOLECULE
182
   34    35     1     0     0
SMALL
No Charge or Current Charge


@<TRIPOS>ATOM
      1 OAC          7.4200   160.3800    10.2160 oh         1 182      -0.718000
      2 CAJ          6.3330   161.3240    10.1470 c3         1 182       0.162600
      3 CAK          6.6090   162.5820    11.0120 c3         1 182       0.148600
      4 OAN          6.5980   162.2090    12.4080 os         1 182      -0.449000
      5 CAL          6.7340   163.2970    13.3430 c3         1 182       0.321000
      6 NAT          8.0980   163.8600    13.2600 n          1 182      -0.349000
      7 CAS          8.2810   165.0870    12.5940 c          1 182       0.619000
      8 OAB          7.3780   165.6940    12.0450 o          1 182      -0.556000
      9 NAM          9.5480   165.5830    12.5900 ns         1 182      -0.470500
     10 CAR         10.6670   165.0490    13.1530 c          1 182       0.597200
     11 OAA         11.7490   165.6080    13.0840 o          1 182      -0.501000
     12 CAI          9.1630   163.2090    13.8880 cc         1 182       0.046600
     13 CAQ         10.4250   163.7560    13.8320 cd         1 182      -0.136600
     14 SE          11.6640   162.8370    14.7060 ss         1 182      -0.167600
     15 CAP         11.6730   161.5670    13.4460 ca         1 182      -0.047000
     16 CAH         12.1330   161.8560    12.1470 ca         1 182      -0.084000
     17 CAF         12.1340   160.8540    11.1610 ca         1 182      -0.112500
     18 CAD         11.6800   159.5610    11.4730 ca         1 182      -0.104000
     19 CAE         11.2270   159.2690    12.7720 ca         1 182      -0.112500
     20 CAG         11.2260   160.2710    13.7580 ca         1 182      -0.084000
     21 HAC          7.1440   159.5860     9.7020 ho         1 182       0.508000
     22 HAJ1         6.1820   161.6450     9.1070 h1         1 182       0.031700
     23 HAJ2         5.3960   160.8590    10.4850 h1         1 182       0.031700
     24 HAK1         7.5760   163.0130    10.7230 h1         1 182       0.044200
     25 HAK2         5.8290   163.3270    10.8080 h1         1 182       0.044200
     26 HAL1         5.9960   164.0860    13.1550 h2         1 182       0.084200
     27 HAL2         6.5880   162.9450    14.3710 h2         1 182       0.084200
     28 HAM          9.6710   166.4620    12.1150 hn         1 182       0.343500
     29 HAI          8.8880   162.2780    14.3750 h4         1 182       0.229000
     30 HAH         12.4890   162.8550    11.9030 ha         1 182       0.128000
     31 HAF         12.4870   161.0790    10.1570 ha         1 182       0.113000
     32 HAD         11.6800   158.7850    10.7100 ha         1 182       0.112000
     33 HAE         10.8770   158.2680    13.0140 ha         1 182       0.113000
     34 HAG         10.8760   160.0430    14.7620 ha         1 182       0.128000
@<TRIPOS>BOND
     1     1     2 1   
     2     1    21 1   
     3     2     3 1   
     4     2    22 1   
     5     2    23 1   
     6     3     4 1   
     7     3    24 1   
     8     3    25 1   
     9     4     5 1   
    10     5     6 1   
    11     5    26 1   
    12     5    27 1   
    13     6     7 1   
    14     6    12 1   
    15     7     8 2   
    16     7     9 1   
    17     9    10 1   
    18     9    28 1   
    19    10    11 2   
    20    10    13 1   
    21    12    13 2   
    22    12    29 1   
    23    13    14 1   
    24    14    15 1   
    25    15    16 ar  
    26    15    20 ar  
    27    16    17 ar  
    28    16    30 1   
    29    17    18 ar  
    30    17    31 1   
    31    18    19 ar  
    32    18    32 1   
    33    19    20 ar  
    34    19    33 1   
    35    20    34 1   
@<TRIPOS>SUBSTRUCTURE
     1 182         1 TEMP              0 ****  ****    0 ROOT
