@<TRIPOS>MOLECULE
182
   34    35     1     0     0
SMALL
abcg2


@<TRIPOS>ATOM
      1 OAC          7.3850   160.2560    11.5740 oh         1 182      -0.718000
      2 CAJ          6.2790   160.9290    11.0200 c3         1 182       0.162600
      3 CAK          6.3330   162.3800    11.4210 c3         1 182       0.148600
      4 OAN          6.1710   162.4780    12.8260 os         1 182      -0.449000
      5 CAL          6.3240   163.7510    13.3430 c3         1 182       0.321000
      6 NAT          7.7260   164.1820    13.2740 n          1 182      -0.349000
      7 CAS          8.0910   165.2630    12.4930 c          1 182       0.619000
      8 OAB          7.2910   165.9720    11.9240 o          1 182      -0.556000
      9 NAM          9.4430   165.4720    12.4150 ns         1 182      -0.470500
     10 CAR         10.4630   164.7180    12.9720 c          1 182       0.597200
     11 OAA         11.6240   165.0100    12.7780 o          1 182      -0.501000
     12 CAI          8.6590   163.3950    13.8760 cc         1 182       0.046600
     13 CAQ          9.9870   163.6010    13.7700 cd         1 182      -0.136600
     14 SE          11.2290   162.4610    14.6150 ss         1 182      -0.167600
     15 CAP         11.7270   161.4260    13.0810 ca         1 182      -0.047000
     16 CAH         13.0740   161.1600    12.8580 ca         1 182      -0.084000
     17 CAF         13.4520   160.3730    11.7760 ca         1 182      -0.112500
     18 CAD         12.4930   159.8660    10.9100 ca         1 182      -0.104000
     19 CAE         11.1490   160.1380    11.1350 ca         1 182      -0.112500
     20 CAG         10.7620   160.9070    12.2240 ca         1 182      -0.084000
     21 HAC          7.3510   159.3370    11.2950 ho         1 182       0.508000
     22 HAJ1         6.2810   160.8950     9.9240 h1         1 182       0.031700
     23 HAJ2         5.3280   160.4930    11.3510 h1         1 182       0.031700
     24 HAK1         7.2920   162.8080    11.1020 h1         1 182       0.044200
     25 HAK2         5.5380   162.9280    10.9020 h1         1 182       0.044200
     26 HAL1         5.7240   164.5030    12.8290 h2         1 182       0.084200
     27 HAL2         6.0280   163.7130    14.3910 h2         1 182       0.084200
     28 HAM          9.7240   166.2670    11.8530 hn         1 182       0.343500
     29 HAI          8.2620   162.5690    14.4500 h4         1 182       0.229000
     30 HAH         13.8340   161.5680    13.5130 ha         1 182       0.128000
     31 HAF         14.5010   160.1690    11.6050 ha         1 182       0.113000
     32 HAD         12.7910   159.2630    10.0620 ha         1 182       0.112000
     33 HAE         10.3930   159.7460    10.4680 ha         1 182       0.113000
     34 HAG          9.7080   161.0890    12.3890 ha         1 182       0.128000
@<TRIPOS>BOND
     1     1     2 1   
     2     1    21 1   
     3     2     3 1   
     4     2    22 1   
     5     2    23 1   
     6     3     4 1   
     7     3    24 1   
     8     3    25 1   
     9     4     5 1   
    10     5     6 1   
    11     5    26 1   
    12     5    27 1   
    13     6     7 1   
    14     6    12 1   
    15     7     8 2   
    16     7     9 1   
    17     9    10 1   
    18     9    28 1   
    19    10    11 2   
    20    10    13 1   
    21    12    13 2   
    22    12    29 1   
    23    13    14 1   
    24    14    15 1   
    25    15    16 ar  
    26    15    20 ar  
    27    16    17 ar  
    28    16    30 1   
    29    17    18 ar  
    30    17    31 1   
    31    18    19 ar  
    32    18    32 1   
    33    19    20 ar  
    34    19    33 1   
    35    20    34 1   
@<TRIPOS>SUBSTRUCTURE
     1 182         1 TEMP              0 ****  ****    0 ROOT
