@<TRIPOS>MOLECULE
183
   50    52     1     0     0
SMALL
No Charge or Current Charge


@<TRIPOS>ATOM
      1 OAC          0.0470    -3.3720     1.6290 oh         1 183      -0.705000
      2 CAN         -0.2710    -3.3710     0.2240 c3         1 183       0.164600
      3 CAO          0.6990    -2.4650    -0.5800 c3         1 183       0.143600
      4 OAT          2.0260    -3.0370    -0.5440 os         1 183      -0.428000
      5 CAR          3.0270    -2.3510    -1.3250 c3         1 183       0.332000
      6 NBC          3.2740    -1.0080    -0.7630 n          1 183      -0.346000
      7 CBB          4.1340    -0.9020     0.3440 c          1 183       0.620000
      8 OAB          4.7300    -1.8500     0.8290 o          1 183      -0.537000
      9 NAS          4.2790     0.3450     0.8620 ns         1 183      -0.469500
     10 CBA          3.6970     1.5050     0.4560 c          1 183       0.593200
     11 OAA          3.9060     2.5540     1.0420 o          1 183      -0.525000
     12 CAY          2.6520     0.1150    -1.3100 cc         1 183      -0.007400
     13 CAZ          2.8190     1.3540    -0.7310 cd         1 183      -0.265400
     14 CAQ          2.0920     2.5910    -1.2120 c3         1 183       0.041100
     15 CAW          0.7650     2.7900    -0.4900 ca         1 183      -0.043300
     16 CAK          0.5550     3.9020     0.3470 ca         1 183      -0.124000
     17 CAH         -0.6630     4.0550     1.0310 ca         1 183      -0.071000
     18 CAL         -1.6780     3.0920     0.8910 ca         1 183      -0.194000
     19 CAM         -0.2600     1.8350    -0.6330 ca         1 183      -0.152000
     20 CAX         -1.4740     1.9730     0.0570 ca         1 183       0.143100
     21 OAU         -2.4170     0.9810    -0.1080 os         1 183      -0.355100
     22 CAP         -3.6570     0.9720     0.6180 c3         1 183       0.213900
     23 CAV         -4.4060    -0.3060     0.2640 ca         1 183      -0.097300
     24 CAJ         -4.0040    -1.5370     0.8210 ca         1 183      -0.085500
     25 CAG         -4.6870    -2.7210     0.4930 ca         1 183      -0.125000
     26 CAE         -5.7770    -2.6820    -0.3930 ca         1 183      -0.101000
     27 CAF         -6.1820    -1.4580    -0.9520 ca         1 183      -0.125000
     28 CAI         -5.4990    -0.2730    -0.6260 ca         1 183      -0.085500
     29 HAC         -0.5320    -4.0470     2.0540 ho         1 183       0.501000
     30 HAN1        -0.2220    -4.3900    -0.1830 h1         1 183       0.031700
     31 HAN2        -1.2950    -3.0050     0.0710 h1         1 183       0.031700
     32 HAO1         0.3400    -2.3950    -1.6150 h1         1 183       0.036200
     33 HAO2         0.6870    -1.4570    -0.1450 h1         1 183       0.036200
     34 HAR1         3.9750    -2.9020    -1.3160 h2         1 183       0.071700
     35 HAR2         2.7110    -2.2400    -2.3690 h2         1 183       0.071700
     36 HAS          4.8900     0.4180     1.6600 hn         1 183       0.343500
     37 HAY          2.0270    -0.1050    -2.1710 h4         1 183       0.199000
     38 HAQ1         2.7270     3.4790    -1.1040 hc         1 183       0.061700
     39 HAQ2         1.9030     2.5100    -2.2900 hc         1 183       0.061700
     40 HAK          1.3390     4.6460     0.4750 ha         1 183       0.124000
     41 HAH         -0.8170     4.9180     1.6760 ha         1 183       0.113000
     42 HAL         -2.6080     3.2300     1.4360 ha         1 183       0.116000
     43 HAM         -0.1120     0.9690    -1.2710 ha         1 183       0.111000
     44 HAP1        -3.4720     0.9920     1.7000 h1         1 183       0.044700
     45 HAP2        -4.2660     1.8480     0.3580 h1         1 183       0.044700
     46 HAJ         -3.1590    -1.5740     1.5050 ha         1 183       0.119500
     47 HAG         -4.3720    -3.6680     0.9260 ha         1 183       0.117500
     48 HAE         -6.3070    -3.5980    -0.6460 ha         1 183       0.116000
     49 HAF         -7.0250    -1.4270    -1.6390 ha         1 183       0.117500
     50 HAI         -5.8170     0.6700    -1.0660 ha         1 183       0.119500
@<TRIPOS>BOND
     1     1     2 1   
     2     1    29 1   
     3     2     3 1   
     4     2    30 1   
     5     2    31 1   
     6     3     4 1   
     7     3    32 1   
     8     3    33 1   
     9     4     5 1   
    10     5     6 1   
    11     5    34 1   
    12     5    35 1   
    13     6     7 1   
    14     6    12 1   
    15     7     8 2   
    16     7     9 1   
    17     9    10 1   
    18     9    36 1   
    19    10    11 2   
    20    10    13 1   
    21    12    13 2   
    22    12    37 1   
    23    13    14 1   
    24    14    15 1   
    25    14    38 1   
    26    14    39 1   
    27    15    16 ar  
    28    15    19 ar  
    29    16    17 ar  
    30    16    40 1   
    31    17    18 ar  
    32    17    41 1   
    33    18    20 ar  
    34    18    42 1   
    35    19    20 ar  
    36    19    43 1   
    37    20    21 1   
    38    21    22 1   
    39    22    23 1   
    40    22    44 1   
    41    22    45 1   
    42    23    24 ar  
    43    23    28 ar  
    44    24    25 ar  
    45    24    46 1   
    46    25    26 ar  
    47    25    47 1   
    48    26    27 ar  
    49    26    48 1   
    50    27    28 ar  
    51    27    49 1   
    52    28    50 1   
@<TRIPOS>SUBSTRUCTURE
     1 183         1 TEMP              0 ****  ****    0 ROOT
