@<TRIPOS>MOLECULE
183
   50    52     1     0     0
SMALL
abcg2


@<TRIPOS>ATOM
      1 OAC         -0.8250    -3.0540     0.9330 oh         1 183      -0.705000
      2 CAN         -0.9220    -2.8500    -0.4570 c3         1 183       0.164600
      3 CAO          0.2740    -2.0710    -0.9420 c3         1 183       0.143600
      4 OAT          1.4560    -2.8280    -0.7580 os         1 183      -0.428000
      5 CAR          2.5840    -2.2900    -1.3590 c3         1 183       0.332000
      6 NBC          3.0190    -1.0490    -0.7270 n          1 183      -0.346000
      7 CBB          3.6550    -1.1190     0.4940 c          1 183       0.620000
      8 OAB          4.0140    -2.1640     0.9940 o          1 183      -0.537000
      9 NAS          3.8550     0.0940     1.0980 ns         1 183      -0.469500
     10 CBA          3.4370     1.3420     0.6650 c          1 183       0.593200
     11 OAA          3.6310     2.3310     1.3450 o          1 183      -0.525000
     12 CAY          2.6220     0.1540    -1.2480 cc         1 183      -0.007400
     13 CAZ          2.7790     1.3350    -0.6270 cd         1 183      -0.265400
     14 CAQ          2.1700     2.6030    -1.1450 c3         1 183       0.041100
     15 CAW          0.8360     2.8420    -0.4720 ca         1 183      -0.043300
     16 CAK          0.5950     3.9540     0.3300 ca         1 183      -0.124000
     17 CAH         -0.6330     4.0910     0.9630 ca         1 183      -0.071000
     18 CAL         -1.6280     3.1280     0.8320 ca         1 183      -0.194000
     19 CAM         -0.1630     1.8930    -0.6230 ca         1 183      -0.152000
     20 CAX         -1.3830     2.0110     0.0360 ca         1 183       0.143100
     21 OAU         -2.2400     0.9880    -0.1540 os         1 183      -0.355100
     22 CAP         -3.4260     0.9090     0.6230 c3         1 183       0.213900
     23 CAV         -3.9560    -0.4810     0.4430 ca         1 183      -0.097300
     24 CAJ         -3.7950    -1.4340     1.4430 ca         1 183      -0.085500
     25 CAG         -4.2310    -2.7400     1.2510 ca         1 183      -0.125000
     26 CAE         -4.8190    -3.1050     0.0470 ca         1 183      -0.101000
     27 CAF         -4.9860    -2.1580    -0.9560 ca         1 183      -0.125000
     28 CAI         -4.5590    -0.8530    -0.7560 ca         1 183      -0.085500
     29 HAC         -1.6980    -3.2930     1.2560 ho         1 183       0.501000
     30 HAN1        -0.9900    -3.7980    -1.0060 h1         1 183       0.031700
     31 HAN2        -1.8110    -2.2630    -0.7190 h1         1 183       0.031700
     32 HAO1         0.1260    -1.8390    -2.0050 h1         1 183       0.036200
     33 HAO2         0.3260    -1.1210    -0.3950 h1         1 183       0.036200
     34 HAR1         3.3800    -3.0250    -1.2800 h2         1 183       0.071700
     35 HAR2         2.4190    -2.0600    -2.4160 h2         1 183       0.071700
     36 HAS          4.3330     0.0600     1.9910 hn         1 183       0.343500
     37 HAY          2.1440     0.0940    -2.2180 h4         1 183       0.199000
     38 HAQ1         2.8380     3.4480    -0.9740 hc         1 183       0.061700
     39 HAQ2         2.0300     2.5230    -2.2250 hc         1 183       0.061700
     40 HAK          1.3640     4.7030     0.4670 ha         1 183       0.124000
     41 HAH         -0.8220     4.9560     1.5850 ha         1 183       0.113000
     42 HAL         -2.5680     3.2600     1.3520 ha         1 183       0.116000
     43 HAM          0.0030     1.0220    -1.2470 ha         1 183       0.111000
     44 HAP1        -3.2120     1.0990     1.6790 h1         1 183       0.044700
     45 HAP2        -4.1520     1.6580     0.2870 h1         1 183       0.044700
     46 HAJ         -3.3330    -1.1530     2.3810 ha         1 183       0.119500
     47 HAG         -4.1170    -3.4700     2.0420 ha         1 183       0.117500
     48 HAE         -5.1520    -4.1230    -0.1070 ha         1 183       0.116000
     49 HAF         -5.4520    -2.4370    -1.8920 ha         1 183       0.117500
     50 HAI         -4.6950    -0.1180    -1.5410 ha         1 183       0.119500
@<TRIPOS>BOND
     1     1     2 1   
     2     1    29 1   
     3     2     3 1   
     4     2    30 1   
     5     2    31 1   
     6     3     4 1   
     7     3    32 1   
     8     3    33 1   
     9     4     5 1   
    10     5     6 1   
    11     5    34 1   
    12     5    35 1   
    13     6     7 1   
    14     6    12 1   
    15     7     8 2   
    16     7     9 1   
    17     9    10 1   
    18     9    36 1   
    19    10    11 2   
    20    10    13 1   
    21    12    13 2   
    22    12    37 1   
    23    13    14 1   
    24    14    15 1   
    25    14    38 1   
    26    14    39 1   
    27    15    16 ar  
    28    15    19 ar  
    29    16    17 ar  
    30    16    40 1   
    31    17    18 ar  
    32    17    41 1   
    33    18    20 ar  
    34    18    42 1   
    35    19    20 ar  
    36    19    43 1   
    37    20    21 1   
    38    21    22 1   
    39    22    23 1   
    40    22    44 1   
    41    22    45 1   
    42    23    24 ar  
    43    23    28 ar  
    44    24    25 ar  
    45    24    46 1   
    46    25    26 ar  
    47    25    47 1   
    48    26    27 ar  
    49    26    48 1   
    50    27    28 ar  
    51    27    49 1   
    52    28    50 1   
@<TRIPOS>SUBSTRUCTURE
     1 183         1 TEMP              0 ****  ****    0 ROOT
