@<TRIPOS>MOLECULE
184
   56    59     1     0     0
SMALL
No Charge or Current Charge


@<TRIPOS>ATOM
      1 C1           0.8300    -1.1050     7.1340 c          1 184       0.711600
      2 C2           0.1860    -0.8210     5.7870 ca         1 184      -0.126600
      3 C3          -0.9280    -1.5740     5.3470 ca         1 184      -0.058000
      4 C4          -1.5250    -1.3130     4.1010 ca         1 184      -0.154000
      5 C5          -1.0220    -0.2960     3.2720 ca         1 184      -0.048000
      6 C10          0.0880     0.4630     3.6960 ca         1 184      -0.044000
      7 C11          0.6860     0.2010     4.9440 ca         1 184      -0.094000
      8 C15          0.1320     0.6590    -3.5050 ca         1 184      -0.065300
      9 C16          0.6150     1.5250    -4.7010 c6         1 184       0.003300
     10 C17          1.6070     0.7550    -5.6130 c6         1 184      -0.066400
     11 C18          1.1300    -0.6780    -5.9020 c6         1 184      -0.065400
     12 C19          1.0330    -1.5290    -4.6050 c6         1 184       0.001300
     13 C20          0.3240    -0.7540    -3.4610 ca         1 184      -0.061300
     14 C23          1.3520     2.8130    -4.2130 c3         1 184      -0.080600
     15 C24         -0.6330     1.9870    -5.5170 c3         1 184      -0.080600
     16 C25          0.2700    -2.8460    -4.9640 c3         1 184      -0.080600
     17 C26          2.4550    -1.9450    -4.1130 c3         1 184      -0.080600
     18 O1           1.7920    -0.4320     7.4780 o          1 184      -0.717500
     19 O2           0.3660    -1.9980     7.8300 o          1 184      -0.717500
     20 C6          -1.6200    -0.0340     2.0250 ca         1 184      -0.084000
     21 C7          -1.1170     0.9880     1.1860 ca         1 184      -0.145300
     22 C8          -0.0040     1.7370     1.6210 ca         1 184      -0.129000
     23 C9           0.5940     1.4790     2.8660 ca         1 184      -0.088000
     24 C13         -1.0030     0.5710    -1.3190 ca         1 184      -0.107300
     25 C14         -0.5520     1.2900    -2.4400 ca         1 184      -0.097000
     26 C21         -0.1140    -1.4620    -2.3180 ca         1 184      -0.112000
     27 C22         -0.7690    -0.8120    -1.2630 ca         1 184      -0.095000
     28 C12         -1.7280     1.2980    -0.1860 c3         1 184       0.269900
     29 O3          -3.1220     0.9800    -0.2280 oh         1 184      -0.654000
     30 H3          -1.3360    -2.3670     5.9700 ha         1 184       0.130000
     31 H4          -2.3810    -1.9050     3.7840 ha         1 184       0.090000
     32 H11          1.5420     0.7940     5.2580 ha         1 184       0.131000
     33 H171         2.5970     0.7310    -5.1400 hc         1 184       0.039700
     34 H172         1.7470     1.2930    -6.5610 hc         1 184       0.039700
     35 H181         1.8150    -1.1550    -6.6170 hc         1 184       0.037700
     36 H182         0.1540    -0.6440    -6.4050 hc         1 184       0.037700
     37 H231         0.6860     3.5130    -3.6970 hc         1 184       0.033533
     38 H232         2.1680     2.5640    -3.5230 hc         1 184       0.033533
     39 H233         1.7920     3.3630    -5.0550 hc         1 184       0.033533
     40 H241        -1.2970     2.6180    -4.9150 hc         1 184       0.033533
     41 H242        -0.3440     2.5690    -6.4010 hc         1 184       0.033533
     42 H243        -1.2290     1.1340    -5.8620 hc         1 184       0.033533
     43 H251         0.2950    -3.5850    -4.1550 hc         1 184       0.033867
     44 H252        -0.7830    -2.6420    -5.1930 hc         1 184       0.033867
     45 H253         0.7090    -3.3310    -5.8450 hc         1 184       0.033867
     46 H261         2.4000    -2.6280    -3.2570 hc         1 184       0.033867
     47 H262         3.0210    -2.4560    -4.9020 hc         1 184       0.033867
     48 H263         3.0430    -1.0780    -3.7910 hc         1 184       0.033867
     49 H6          -2.4720    -0.6320     1.7120 ha         1 184       0.101000
     50 H8           0.4030     2.5230     0.9880 ha         1 184       0.096000
     51 H9           1.4510     2.0690     3.1820 ha         1 184       0.107000
     52 H14         -0.7440     2.3580    -2.4820 ha         1 184       0.109000
     53 H21          0.0540    -2.5310    -2.2310 ha         1 184       0.108000
     54 H22         -1.0920    -1.3920    -0.4020 ha         1 184       0.120000
     55 H12         -1.6120     2.3790    -0.3490 h1         1 184       0.073700
     56 HO3         -3.1710     0.0070    -0.3280 ho         1 184       0.441000
@<TRIPOS>BOND
     1     1     2 1   
     2     1    18 1   
     3     1    19 1   
     4     2     3 ar  
     5     2     7 ar  
     6     3     4 ar  
     7     3    30 1   
     8     4     5 ar  
     9     4    31 1   
    10     5     6 ar  
    11     5    20 ar  
    12     6     7 ar  
    13     6    23 ar  
    14     7    32 1   
    15     8     9 1   
    16     8    13 ar  
    17     8    25 ar  
    18     9    10 1   
    19     9    14 1   
    20     9    15 1   
    21    10    11 1   
    22    10    33 1   
    23    10    34 1   
    24    11    12 1   
    25    11    35 1   
    26    11    36 1   
    27    12    13 1   
    28    12    16 1   
    29    12    17 1   
    30    13    26 ar  
    31    14    37 1   
    32    14    38 1   
    33    14    39 1   
    34    15    40 1   
    35    15    41 1   
    36    15    42 1   
    37    16    43 1   
    38    16    44 1   
    39    16    45 1   
    40    17    46 1   
    41    17    47 1   
    42    17    48 1   
    43    20    21 ar  
    44    20    49 1   
    45    21    22 ar  
    46    21    28 1   
    47    22    23 ar  
    48    22    50 1   
    49    23    51 1   
    50    24    25 ar  
    51    24    27 ar  
    52    24    28 1   
    53    25    52 1   
    54    26    27 ar  
    55    26    53 1   
    56    27    54 1   
    57    28    29 1   
    58    28    55 1   
    59    29    56 1   
@<TRIPOS>SUBSTRUCTURE
     1 184         1 TEMP              0 ****  ****    0 ROOT
