@<TRIPOS>MOLECULE
184
   56    59     1     0     0
SMALL
abcg2


@<TRIPOS>ATOM
      1 C1           1.0480    -0.8420     7.0160 c          1 184       0.711600
      2 C2           0.2880    -0.6050     5.7170 ca         1 184      -0.126600
      3 C3          -1.0290    -1.0940     5.5570 ca         1 184      -0.058000
      4 C4          -1.7260    -0.8870     4.3980 ca         1 184      -0.154000
      5 C5          -1.1460    -0.1760     3.3220 ca         1 184      -0.048000
      6 C10          0.1730     0.3190     3.4730 ca         1 184      -0.044000
      7 C11          0.8640     0.0880     4.6810 ca         1 184      -0.094000
      8 C15          0.0940     0.6120    -3.4650 ca         1 184      -0.065300
      9 C16          0.6220     1.5700    -4.5270 c6         1 184       0.003300
     10 C17          1.6880     0.8790    -5.3810 c6         1 184      -0.066400
     11 C18          1.2740    -0.5120    -5.8100 c6         1 184      -0.065400
     12 C19          1.0940    -1.4560    -4.6170 c6         1 184       0.001300
     13 C20          0.3130    -0.7690    -3.5050 ca         1 184      -0.061300
     14 C23          1.2690     2.8010    -3.8810 c3         1 184      -0.080600
     15 C24         -0.5470     2.0310    -5.4090 c3         1 184      -0.080600
     16 C25          0.3600    -2.7070    -5.1170 c3         1 184      -0.080600
     17 C26          2.4670    -1.8750    -4.0740 c3         1 184      -0.080600
     18 O1           2.2070    -0.3900     7.0770 o          1 184      -0.717500
     19 O2           0.4420    -1.4670     7.9080 o          1 184      -0.717500
     20 C6          -1.8400     0.0530     2.1090 ca         1 184      -0.084000
     21 C7          -1.2540     0.7300     1.0750 ca         1 184      -0.145300
     22 C8           0.0640     1.2290     1.2340 ca         1 184      -0.129000
     23 C9           0.7530     1.0340     2.3960 ca         1 184      -0.088000
     24 C13         -1.1510     0.3580    -1.3780 ca         1 184      -0.107300
     25 C14         -0.6610     1.1380    -2.4090 ca         1 184      -0.097000
     26 C21         -0.1760    -1.5520    -2.4520 ca         1 184      -0.112000
     27 C22         -0.8860    -1.0100    -1.4000 ca         1 184      -0.095000
     28 C12         -1.9530     0.9700    -0.2490 c3         1 184       0.269900
     29 O3          -3.2930     0.5420    -0.2580 oh         1 184      -0.654000
     30 H3          -1.4870    -1.6410     6.3700 ha         1 184       0.130000
     31 H4          -2.7350    -1.2690     4.2890 ha         1 184       0.090000
     32 H11          1.8720     0.4690     4.7900 ha         1 184       0.131000
     33 H171         2.6250     0.8270    -4.8170 hc         1 184       0.039700
     34 H172         1.8990     1.5000    -6.2570 hc         1 184       0.039700
     35 H181         2.0200    -0.9420    -6.4850 hc         1 184       0.037700
     36 H182         0.3430    -0.4650    -6.3830 hc         1 184       0.037700
     37 H231         0.5500     3.4330    -3.3590 hc         1 184       0.033533
     38 H232         2.0440     2.5160    -3.1680 hc         1 184       0.033533
     39 H233         1.7380     3.4190    -4.6500 hc         1 184       0.033533
     40 H241        -1.2950     2.5680    -4.8230 hc         1 184       0.033533
     41 H242        -0.1920     2.7050    -6.1920 hc         1 184       0.033533
     42 H243        -1.0500     1.1920    -5.8900 hc         1 184       0.033533
     43 H251         0.3010    -3.4930    -4.3640 hc         1 184       0.033867
     44 H252        -0.6560    -2.4690    -5.4350 hc         1 184       0.033867
     45 H253         0.8910    -3.1220    -5.9760 hc         1 184       0.033867
     46 H261         2.3670    -2.5720    -3.2400 hc         1 184       0.033867
     47 H262         3.0510    -2.3690    -4.8540 hc         1 184       0.033867
     48 H263         3.0420    -1.0200    -3.7160 hc         1 184       0.033867
     49 H6          -2.8540    -0.3210     2.0220 ha         1 184       0.101000
     50 H8           0.5280     1.7720     0.4200 ha         1 184       0.096000
     51 H9           1.7580     1.4230     2.5060 ha         1 184       0.107000
     52 H14         -0.8680     2.2020    -2.3850 ha         1 184       0.109000
     53 H21          0.0150    -2.6180    -2.4470 ha         1 184       0.108000
     54 H22         -1.2170    -1.6530    -0.5920 ha         1 184       0.120000
     55 H12         -1.9920     2.0520    -0.4110 h1         1 184       0.073700
     56 HO3         -3.3210    -0.4210    -0.2650 ho         1 184       0.441000
@<TRIPOS>BOND
     1     1     2 1   
     2     1    18 1   
     3     1    19 1   
     4     2     3 ar  
     5     2     7 ar  
     6     3     4 ar  
     7     3    30 1   
     8     4     5 ar  
     9     4    31 1   
    10     5     6 ar  
    11     5    20 ar  
    12     6     7 ar  
    13     6    23 ar  
    14     7    32 1   
    15     8     9 1   
    16     8    13 ar  
    17     8    25 ar  
    18     9    10 1   
    19     9    14 1   
    20     9    15 1   
    21    10    11 1   
    22    10    33 1   
    23    10    34 1   
    24    11    12 1   
    25    11    35 1   
    26    11    36 1   
    27    12    13 1   
    28    12    16 1   
    29    12    17 1   
    30    13    26 ar  
    31    14    37 1   
    32    14    38 1   
    33    14    39 1   
    34    15    40 1   
    35    15    41 1   
    36    15    42 1   
    37    16    43 1   
    38    16    44 1   
    39    16    45 1   
    40    17    46 1   
    41    17    47 1   
    42    17    48 1   
    43    20    21 ar  
    44    20    49 1   
    45    21    22 ar  
    46    21    28 1   
    47    22    23 ar  
    48    22    50 1   
    49    23    51 1   
    50    24    25 ar  
    51    24    27 ar  
    52    24    28 1   
    53    25    52 1   
    54    26    27 ar  
    55    26    53 1   
    56    27    54 1   
    57    28    29 1   
    58    28    55 1   
    59    29    56 1   
@<TRIPOS>SUBSTRUCTURE
     1 184         1 TEMP              0 ****  ****    0 ROOT
