@<TRIPOS>MOLECULE
185
   45    47     1     0     0
SMALL
No Charge or Current Charge


@<TRIPOS>ATOM
      1 C1           3.0080     0.6470     0.0140 ca         1 185       0.115100
      2 O17          2.4440    -0.6070    -0.0520 os         1 185      -0.346400
      3 C2           3.3480     1.3230    -1.1780 ca         1 185      -0.060800
      4 C7           3.0950     0.6800    -2.5380 c3         1 185      -0.050300
      5 C3           3.9210     2.6070    -1.1030 ca         1 185      -0.075000
      6 C4           4.1570     3.2110     0.1460 ca         1 185      -0.005000
      7 C5           3.8220     2.5260     1.3290 ca         1 185      -0.075000
      8 C6           3.2480     1.2410     1.2720 ca         1 185      -0.060800
      9 C9           2.8890     0.5090     2.5610 c3         1 185      -0.050300
     10 C13          1.0790    -0.7950    -0.0840 ca         1 185       0.417300
     11 N12          0.2450     0.2630    -0.0830 nb         1 185      -0.316000
     12 C11         -1.0650    -0.0030    -0.1070 ca         1 185       0.434900
     13 N5          -1.8720     1.1220    -0.1350 nu         1 185      -0.918900
     14 N16         -1.6400    -1.2160    -0.1550 nb         1 185      -0.249000
     15 C15         -0.8160    -2.2820    -0.1560 ca         1 185       0.179300
     16 C18         -1.4820    -3.6600    -0.2050 c3         1 185       0.105300
     17 C14          0.5840    -2.1120    -0.1190 ca         1 185      -0.210900
     18 C21         -3.2490     1.3440    -0.0590 ca         1 185       0.338000
     19 C22         -3.7740     2.5080    -0.6460 ca         1 185      -0.159500
     20 C23         -5.1520     2.7830    -0.5860 ca         1 185      -0.040500
     21 C24         -6.0200     1.8950     0.0760 ca         1 185      -0.052000
     22 C25         -5.4980     0.7360     0.6800 ca         1 185      -0.040500
     23 C26         -4.1180     0.4670     0.6150 ca         1 185      -0.159500
     24 C27         -7.4280     2.1730     0.1410 cg         1 185       0.329000
     25 N27         -8.5710     2.4070     0.1980 n1         1 185      -0.456000
     26 C8           4.7410     4.5230     0.2140 cg         1 185       0.321000
     27 N4           5.2080     5.5920     0.2650 n1         1 185      -0.444000
     28 O18         -1.3850    -4.2530    -1.5150 oh         1 185      -0.638000
     29 Br           1.7880    -3.6140    -0.1180 br         1 185      -0.049100
     30 H2'1         3.5270    -0.3270    -2.5840 hc         1 185       0.053367
     31 H2'2         2.0200     0.5930    -2.7360 hc         1 185       0.053367
     32 H2'3         3.5360     1.2630    -3.3550 hc         1 185       0.053367
     33 H3           4.1820     3.1380    -2.0170 ha         1 185       0.130500
     34 H5           4.0060     2.9940     2.2950 ha         1 185       0.130500
     35 H6'1         1.8020     0.4380     2.6810 hc         1 185       0.053367
     36 H6'2         3.2940    -0.5100     2.5640 hc         1 185       0.053367
     37 H6'3         3.2870     1.0210     3.4460 hc         1 185       0.053367
     38 HN5         -1.3330     1.9650    -0.3250 hn         1 185       0.517000
     39 H181        -1.0130    -4.3080     0.5490 h1         1 185       0.069200
     40 H182        -2.5370    -3.5580     0.0850 h1         1 185       0.069200
     41 H22         -3.1150     3.2010    -1.1610 ha         1 185       0.137500
     42 H23         -5.5420     3.6860    -1.0530 ha         1 185       0.127000
     43 H25         -6.1560     0.0460     1.2060 ha         1 185       0.127000
     44 H26         -3.7340    -0.4180     1.1100 ha         1 185       0.137500
     45 H18         -0.4280    -4.3210    -1.7320 ho         1 185       0.451000
@<TRIPOS>BOND
     1     1     2 1   
     2     1     3 ar  
     3     1     8 ar  
     4     2    10 1   
     5     3     4 1   
     6     3     5 ar  
     7     4    30 1   
     8     4    31 1   
     9     4    32 1   
    10     5     6 ar  
    11     5    33 1   
    12     6     7 ar  
    13     6    26 1   
    14     7     8 ar  
    15     7    34 1   
    16     8     9 1   
    17     9    35 1   
    18     9    36 1   
    19     9    37 1   
    20    10    11 ar  
    21    10    17 ar  
    22    11    12 ar  
    23    12    13 1   
    24    12    14 ar  
    25    13    18 1   
    26    13    38 1   
    27    14    15 ar  
    28    15    16 1   
    29    15    17 ar  
    30    16    28 1   
    31    16    39 1   
    32    16    40 1   
    33    17    29 1   
    34    18    19 ar  
    35    18    23 ar  
    36    19    20 ar  
    37    19    41 1   
    38    20    21 ar  
    39    20    42 1   
    40    21    22 ar  
    41    21    24 1   
    42    22    23 ar  
    43    22    43 1   
    44    23    44 1   
    45    24    25 3   
    46    26    27 3   
    47    28    45 1   
@<TRIPOS>SUBSTRUCTURE
     1 185         1 TEMP              0 ****  ****    0 ROOT
