@<TRIPOS>MOLECULE
185
   45    47     1     0     0
SMALL
abcg2


@<TRIPOS>ATOM
      1 C1           2.9180     0.6990    -0.0300 ca         1 185       0.115100
      2 O17          2.4190    -0.5880    -0.0690 os         1 185      -0.346400
      3 C2           3.1870     1.3330    -1.2380 ca         1 185      -0.060800
      4 C7           2.8610     0.6850    -2.5480 c3         1 185      -0.050300
      5 C3           3.7660     2.5930    -1.1800 ca         1 185      -0.075000
      6 C4           4.0500     3.1790     0.0510 ca         1 185      -0.005000
      7 C5           3.7640     2.5150     1.2420 ca         1 185      -0.075000
      8 C6           3.1850     1.2550     1.2170 ca         1 185      -0.060800
      9 C9           2.8580     0.5210     2.4810 c3         1 185      -0.050300
     10 C13          1.1000    -0.7730    -0.0590 ca         1 185       0.417300
     11 N12          0.3050     0.2620    -0.0650 nb         1 185      -0.316000
     12 C11         -1.0080     0.0160    -0.0460 ca         1 185       0.434900
     13 N5          -1.7780     1.1390    -0.0560 nu         1 185      -0.918900
     14 N16         -1.5630    -1.1830    -0.0220 nb         1 185      -0.249000
     15 C15         -0.7550    -2.2410    -0.0190 ca         1 185       0.179300
     16 C18         -1.4280    -3.5950    -0.0190 c3         1 185       0.105300
     17 C14          0.6200    -2.0870    -0.0380 ca         1 185      -0.210900
     18 C21         -3.1480     1.3130    -0.0470 ca         1 185       0.338000
     19 C22         -3.6000     2.6400    -0.1140 ca         1 185      -0.159500
     20 C23         -4.9440     2.9330    -0.1040 ca         1 185      -0.040500
     21 C24         -5.8810     1.9000    -0.0290 ca         1 185      -0.052000
     22 C25         -5.4390     0.5800     0.0360 ca         1 185      -0.040500
     23 C26         -4.0900     0.2810     0.0270 ca         1 185      -0.159500
     24 C27         -7.2740     2.1920    -0.0150 cg         1 185       0.329000
     25 N27         -8.4030     2.4290     0.0020 n1         1 185      -0.456000
     26 C8           4.6460     4.4750     0.0930 cg         1 185       0.321000
     27 N4           5.1270     5.5210     0.1260 n1         1 185      -0.444000
     28 O18         -1.2840    -4.2510    -1.2540 oh         1 185      -0.638000
     29 BR           1.8170    -3.5260    -0.0050 br         1 185      -0.049100
     30 H2'1         3.3010    -0.3090    -2.6290 hc         1 185       0.053367
     31 H2'2         1.7820     0.5770    -2.6780 hc         1 185       0.053367
     32 H2'3         3.2330     1.2850    -3.3760 hc         1 185       0.053367
     33 H3           3.9920     3.1210    -2.0970 ha         1 185       0.130500
     34 H5           3.9900     2.9830     2.1910 ha         1 185       0.130500
     35 H6'1         1.7790     0.4270     2.6170 hc         1 185       0.053367
     36 H6'2         3.2780    -0.4850     2.4850 hc         1 185       0.053367
     37 H6'3         3.2510     1.0520     3.3460 hc         1 185       0.053367
     38 HN5         -1.2330     1.9890    -0.0880 hn         1 185       0.517000
     39 H181        -1.0540    -4.1920     0.8190 h1         1 185       0.069200
     40 H182        -2.4920    -3.4310     0.1490 h1         1 185       0.069200
     41 H22         -2.8840     3.4500    -0.1730 ha         1 185       0.137500
     42 H23         -5.2700     3.9630    -0.1560 ha         1 185       0.127000
     43 H25         -6.1570    -0.2270     0.0940 ha         1 185       0.127000
     44 H26         -3.7740    -0.7480     0.0770 ha         1 185       0.137500
     45 H18         -0.4660    -4.7570    -1.2550 ho         1 185       0.451000
@<TRIPOS>BOND
     1     1     2 1   
     2     1     3 ar  
     3     1     8 ar  
     4     2    10 1   
     5     3     4 1   
     6     3     5 ar  
     7     4    30 1   
     8     4    31 1   
     9     4    32 1   
    10     5     6 ar  
    11     5    33 1   
    12     6     7 ar  
    13     6    26 1   
    14     7     8 ar  
    15     7    34 1   
    16     8     9 1   
    17     9    35 1   
    18     9    36 1   
    19     9    37 1   
    20    10    11 ar  
    21    10    17 ar  
    22    11    12 ar  
    23    12    13 1   
    24    12    14 ar  
    25    13    18 1   
    26    13    38 1   
    27    14    15 ar  
    28    15    16 1   
    29    15    17 ar  
    30    16    28 1   
    31    16    39 1   
    32    16    40 1   
    33    17    29 1   
    34    18    19 ar  
    35    18    23 ar  
    36    19    20 ar  
    37    19    41 1   
    38    20    21 ar  
    39    20    42 1   
    40    21    22 ar  
    41    21    24 1   
    42    22    23 ar  
    43    22    43 1   
    44    23    44 1   
    45    24    25 3   
    46    26    27 3   
    47    28    45 1   
@<TRIPOS>SUBSTRUCTURE
     1 185         1 TEMP              0 ****  ****    0 ROOT
