@<TRIPOS>MOLECULE
186
   54    55     1     0     0
SMALL
No Charge or Current Charge


@<TRIPOS>ATOM
      1 O34          1.5670     0.1920    -1.6620 o          1 186      -0.540000
      2 C18          1.7420    -0.2880    -0.5540 c          1 186       0.644100
      3 O26          2.8450    -0.9710    -0.1460 os         1 186      -0.454100
      4 C27          3.9240    -1.1020    -1.0840 c3         1 186       0.229900
      5 C28          5.0560    -1.8660    -0.4090 ca         1 186      -0.097300
      6 C33          5.1500    -3.2660    -0.5440 ca         1 186      -0.087500
      7 C32          6.1960    -3.9700     0.0780 ca         1 186      -0.114500
      8 C31          7.1540    -3.2790     0.8400 ca         1 186      -0.100000
      9 C30          7.0640    -1.8830     0.9800 ca         1 186      -0.114500
     10 C29          6.0180    -1.1790     0.3580 ca         1 186      -0.087500
     11 N17          0.8390    -0.2600     0.4710 ns         1 186      -0.481900
     12 C13         -0.4610     0.4470     0.4440 c3         1 186       0.044700
     13 C16         -0.3310     1.8780     1.0330 c3         1 186      -0.052100
     14 C20          0.7230     2.7300     0.3340 ca         1 186      -0.090300
     15 C25          0.4210     3.3730    -0.8820 ca         1 186      -0.098000
     16 C24          1.3940     4.1510    -1.5340 ca         1 186      -0.106500
     17 C23          2.6760     4.2890    -0.9740 ca         1 186      -0.103000
     18 C22          2.9830     3.6500     0.2390 ca         1 186      -0.106500
     19 C21          2.0100     2.8740     0.8920 ca         1 186      -0.098000
     20 C12         -1.5450    -0.3760     1.1970 c          1 186       0.596100
     21 O19         -1.2810    -1.3310     1.9180 o          1 186      -0.592100
     22 N11         -2.8440     0.0420     0.9900 ns         1 186      -0.507900
     23 C8          -4.0240    -0.5550     1.6100 c3         1 186       0.138900
     24 C14         -4.1780    -0.0900     3.0720 c3         1 186      -0.106100
     25 C7          -5.2330    -0.2190     0.7640 c2         1 186      -0.146200
     26 C6          -5.4670    -0.6860    -0.4880 ce         1 186      -0.296200
     27 C5          -6.6760    -0.3350    -1.3040 c          1 186       0.450300
     28 O10         -7.5500     0.4160    -0.8760 o          1 186      -0.470100
     29 C4          -6.7650    -0.9850    -2.7440 c          1 186       0.474900
     30 O9          -7.7000    -0.7860    -3.5200 o          1 186      -0.456100
     31 H271         3.5970    -1.6430    -1.9820 h1         1 186       0.057700
     32 H272         4.2880    -0.1140    -1.3990 h1         1 186       0.057700
     33 H33          4.4110    -3.8090    -1.1300 ha         1 186       0.114000
     34 H32          6.2630    -5.0500    -0.0290 ha         1 186       0.114000
     35 H31          7.9630    -3.8240     1.3220 ha         1 186       0.113000
     36 H30          7.8040    -1.3480     1.5710 ha         1 186       0.114000
     37 H29          5.9540    -0.0990     0.4730 ha         1 186       0.114000
     38 H17          1.1130    -0.7500     1.3140 hn         1 186       0.341500
     39 H13         -0.7960     0.5270    -0.5990 h1         1 186       0.092700
     40 H161        -1.3030     2.3830     0.9750 hc         1 186       0.058700
     41 H162        -0.1000     1.8000     2.1030 hc         1 186       0.058700
     42 H25         -0.5670     3.2680    -1.3250 ha         1 186       0.109500
     43 H24          1.1560     4.6440    -2.4730 ha         1 186       0.113000
     44 H23          3.4290     4.8900    -1.4790 ha         1 186       0.113000
     45 H22          3.9750     3.7550     0.6730 ha         1 186       0.113000
     46 H21          2.2580     2.3790     1.8280 ha         1 186       0.109500
     47 H11         -2.9820     0.8280     0.3670 hn         1 186       0.320500
     48 H8          -3.8970    -1.6470     1.6120 h1         1 186       0.077700
     49 H141        -4.2820     1.0000     3.1260 hc         1 186       0.049367
     50 H142        -5.0660    -0.5450     3.5270 hc         1 186       0.049367
     51 H143        -3.3060    -0.3820     3.6680 hc         1 186       0.049367
     52 H7          -5.9460     0.4570     1.2440 ha         1 186       0.193000
     53 H6          -4.7530    -1.3600    -0.9620 ha         1 186       0.191000
     54 H4          -5.9210    -1.6500    -3.0340 h4         1 186       0.002200
@<TRIPOS>BOND
     1     1     2 2   
     2     2     3 1   
     3     2    11 1   
     4     3     4 1   
     5     4     5 1   
     6     4    31 1   
     7     4    32 1   
     8     5     6 ar  
     9     5    10 ar  
    10     6     7 ar  
    11     6    33 1   
    12     7     8 ar  
    13     7    34 1   
    14     8     9 ar  
    15     8    35 1   
    16     9    10 ar  
    17     9    36 1   
    18    10    37 1   
    19    11    12 1   
    20    11    38 1   
    21    12    13 1   
    22    12    20 1   
    23    12    39 1   
    24    13    14 1   
    25    13    40 1   
    26    13    41 1   
    27    14    15 ar  
    28    14    19 ar  
    29    15    16 ar  
    30    15    42 1   
    31    16    17 ar  
    32    16    43 1   
    33    17    18 ar  
    34    17    44 1   
    35    18    19 ar  
    36    18    45 1   
    37    19    46 1   
    38    20    21 2   
    39    20    22 1   
    40    22    23 1   
    41    22    47 1   
    42    23    24 1   
    43    23    25 1   
    44    23    48 1   
    45    24    49 1   
    46    24    50 1   
    47    24    51 1   
    48    25    26 2   
    49    25    52 1   
    50    26    27 1   
    51    26    53 1   
    52    27    28 2   
    53    27    29 1   
    54    29    30 2   
    55    29    54 1   
@<TRIPOS>SUBSTRUCTURE
     1 186         1 TEMP              0 ****  ****    0 ROOT
