@<TRIPOS>MOLECULE
186
   54    55     1     0     0
SMALL
bcc


@<TRIPOS>ATOM
      1 O34          1.3020     1.1360    -1.7080 o          1 186      -0.589000
      2 C18          1.3690     0.2720    -0.8600 c          1 186       0.760100
      3 O26          2.3610    -0.6210    -0.7800 os         1 186      -0.430900
      4 C27          3.4560    -0.4490    -1.6820 c3         1 186       0.206700
      5 C28          4.5390    -1.3950    -1.2550 ca         1 186      -0.097300
      6 C33          4.9760    -2.4020    -2.1060 ca         1 186      -0.105500
      7 C32          5.9920    -3.2670    -1.7160 ca         1 186      -0.132500
      8 C31          6.5730    -3.1340    -0.4630 ca         1 186      -0.118000
      9 C30          6.1380    -2.1300     0.3960 ca         1 186      -0.132500
     10 C29          5.1290    -1.2650     0.0010 ca         1 186      -0.105500
     11 N17          0.4540     0.0490     0.1060 ns         1 186      -0.548900
     12 C13         -0.5640     1.0100     0.4270 c3         1 186       0.044700
     13 C16         -0.1280     1.9540     1.5730 c3         1 186      -0.052100
     14 C20          1.1840     2.6130     1.2640 ca         1 186      -0.090300
     15 C25          1.2260     3.7820     0.5100 ca         1 186      -0.116000
     16 C24          2.4380     4.3560     0.1550 ca         1 186      -0.124500
     17 C23          3.6310     3.7610     0.5450 ca         1 186      -0.121000
     18 C22          3.6010     2.5980     1.3040 ca         1 186      -0.124500
     19 C21          2.3850     2.0320     1.6630 ca         1 186      -0.116000
     20 C12         -1.8320     0.2770     0.8500 c          1 186       0.663100
     21 O19         -1.7920    -0.8170     1.3870 o          1 186      -0.592100
     22 N11         -2.9680     0.9640     0.6500 ns         1 186      -0.574900
     23 C8          -4.2680     0.4670     1.0610 c3         1 186       0.138900
     24 C14         -5.2620     1.6210     1.1120 c3         1 186      -0.106100
     25 C7          -4.7370    -0.5810     0.0990 c2         1 186      -0.096200
     26 C6          -5.0940    -1.8190     0.4500 ce         1 186      -0.246200
     27 C5          -5.5710    -2.7960    -0.5280 c          1 186       0.450300
     28 O10         -5.6930    -2.6010    -1.7160 o          1 186      -0.470100
     29 C4          -5.9340    -4.1740     0.0370 c          1 186       0.474900
     30 O9          -6.3300    -5.0500    -0.6790 o          1 186      -0.456100
     31 H271         3.1450    -0.6580    -2.7080 h1         1 186       0.057700
     32 H272         3.8110     0.5840    -1.6420 h1         1 186       0.057700
     33 H33          4.5240    -2.5140    -3.0840 ha         1 186       0.132000
     34 H32          6.3270    -4.0440    -2.3900 ha         1 186       0.132000
     35 H31          7.3630    -3.8070    -0.1550 ha         1 186       0.131000
     36 H30          6.5880    -2.0210     1.3740 ha         1 186       0.132000
     37 H29          4.8000    -0.4840     0.6760 ha         1 186       0.132000
     38 H17          0.6440    -0.6650     0.7940 hn         1 186       0.341500
     39 H13         -0.7610     1.6080    -0.4640 h1         1 186       0.092700
     40 H161        -0.9070     2.7040     1.7260 hc         1 186       0.058700
     41 H162        -0.0540     1.3750     2.4980 hc         1 186       0.058700
     42 H25          0.2980     4.2460     0.1930 ha         1 186       0.127500
     43 H24          2.4520     5.2670    -0.4300 ha         1 186       0.131000
     44 H23          4.5780     4.2050     0.2680 ha         1 186       0.131000
     45 H22          4.5260     2.1340     1.6210 ha         1 186       0.131000
     46 H21          2.3710     1.1320     2.2670 ha         1 186       0.127500
     47 H11         -2.9350     1.8300     0.1340 hn         1 186       0.320500
     48 H8          -4.1730     0.0310     2.0580 h1         1 186       0.077700
     49 H141        -5.4010     2.0690     0.1270 hc         1 186       0.049367
     50 H142        -6.2310     1.2680     1.4620 hc         1 186       0.049367
     51 H143        -4.9120     2.3930     1.7970 hc         1 186       0.049367
     52 H7          -4.7900    -0.2770    -0.9440 ha         1 186       0.143000
     53 H6          -5.0340    -2.1320     1.4870 ha         1 186       0.141000
     54 H4          -5.8110    -4.3100     1.1240 h4         1 186       0.002200
@<TRIPOS>BOND
     1     1     2 2   
     2     2     3 1   
     3     2    11 1   
     4     3     4 1   
     5     4     5 1   
     6     4    31 1   
     7     4    32 1   
     8     5     6 ar  
     9     5    10 ar  
    10     6     7 ar  
    11     6    33 1   
    12     7     8 ar  
    13     7    34 1   
    14     8     9 ar  
    15     8    35 1   
    16     9    10 ar  
    17     9    36 1   
    18    10    37 1   
    19    11    12 1   
    20    11    38 1   
    21    12    13 1   
    22    12    20 1   
    23    12    39 1   
    24    13    14 1   
    25    13    40 1   
    26    13    41 1   
    27    14    15 ar  
    28    14    19 ar  
    29    15    16 ar  
    30    15    42 1   
    31    16    17 ar  
    32    16    43 1   
    33    17    18 ar  
    34    17    44 1   
    35    18    19 ar  
    36    18    45 1   
    37    19    46 1   
    38    20    21 2   
    39    20    22 1   
    40    22    23 1   
    41    22    47 1   
    42    23    24 1   
    43    23    25 1   
    44    23    48 1   
    45    24    49 1   
    46    24    50 1   
    47    24    51 1   
    48    25    26 2   
    49    25    52 1   
    50    26    27 1   
    51    26    53 1   
    52    27    28 2   
    53    27    29 1   
    54    29    30 2   
    55    29    54 1   
@<TRIPOS>SUBSTRUCTURE
     1 186         1 TEMP              0 ****  ****    0 ROOT
