@<TRIPOS>MOLECULE
187
   54    58     1     0     0
SMALL
No Charge or Current Charge


@<TRIPOS>ATOM
      1 C1          -4.1990     3.9100     1.6040 ca         1 187      -0.070000
      2 C2          -3.5030     3.0460     2.4660 ca         1 187      -0.101000
      3 C3          -3.2450     1.7210     2.0810 ca         1 187      -0.080000
      4 C4          -3.6850     1.2540     0.8290 ca         1 187      -0.001200
      5 C5          -4.3890     2.1200    -0.0320 ca         1 187      -0.063000
      6 C6          -4.6380     3.4640     0.3350 ca         1 187      -0.186900
      7 C20         -5.4190     4.3690    -0.5620 ce         1 187       0.661800
      8 N3          -6.2390     3.9540    -1.4350 n2         1 187      -0.835100
      9 N4          -5.1140     5.6780    -0.5510 nv         1 187      -1.036200
     10 N1          -3.4430    -0.0660     0.4470 na         1 187       0.278000
     11 N6          -4.4900    -0.9560     0.4160 nc         1 187      -0.436800
     12 N5           0.1640    -0.7930    -0.2740 ns         1 187      -0.143000
     13 C7           1.5670    -0.6140    -0.4580 ca         1 187      -0.076000
     14 C44          2.3370    -1.7410    -0.8170 ca         1 187       0.149000
     15 C14          3.7220    -1.6400    -1.0140 ca         1 187      -0.140000
     16 C16          4.3690    -0.4020    -0.8530 ca         1 187       0.026800
     17 N7           5.7440    -0.2900    -1.0470 na         1 187      -0.097400
     18 C18          3.6120     0.7290    -0.4960 ca         1 187      -0.116000
     19 C22          2.2230     0.6280    -0.2990 ca         1 187      -0.074000
     20 C9           6.6700     0.0680    -0.1190 ca         1 187      -0.072200
     21 C15          6.4060    -0.7670    -2.1780 cc         1 187       0.428700
     22 C23          7.8840    -0.1620    -0.7090 ca         1 187       0.068400
     23 N2           7.7450    -0.6820    -2.0010 nd         1 187      -0.563100
     24 C13         -2.1890    -0.5770     0.1400 cc         1 187      -0.219600
     25 C12         -2.4820    -1.8990    -0.1070 cd         1 187      -0.142000
     26 C8          -0.8610     0.0810     0.0650 c          1 187       0.645700
     27 C10         -3.8800    -2.0790     0.0680 cd         1 187       0.125300
     28 O3          -0.6960     1.2750     0.2770 o          1 187      -0.552100
     29 C11         -4.6520    -3.3780    -0.1020 c3         1 187       0.297700
     30 F1          -5.6150    -3.2730    -1.0470 f          1 187      -0.103333
     31 F3          -3.8500    -4.4040    -0.4730 f          1 187      -0.103333
     32 F2          -5.2620    -3.7560     1.0460 f          1 187      -0.103333
     33 C17          9.0720     0.1110    -0.0160 ca         1 187      -0.047000
     34 C21          8.9820     0.6220     1.2980 ca         1 187      -0.131000
     35 C25          7.7190     0.8490     1.8970 ca         1 187      -0.092000
     36 C27          6.5340     0.5690     1.1840 ca         1 187      -0.112000
     37 F4           1.7380    -2.9440    -0.9750 f          1 187      -0.174000
     38 H1          -4.4050     4.9270     1.9340 ha         1 187       0.132000
     39 H2          -3.1690     3.4020     3.4380 ha         1 187       0.127000
     40 H3          -2.7080     1.0570     2.7540 ha         1 187       0.127000
     41 H5          -4.7220     1.7420    -0.9970 ha         1 187       0.143000
     42 HN3         -6.4260     2.9610    -1.2450 hn         1 187       0.394400
     43 HN41        -5.4210     6.1700    -1.3820 hn         1 187       0.473000
     44 HN42        -4.1850     5.9080    -0.2220 hn         1 187       0.473000
     45 HN5         -0.1430    -1.7460    -0.4170 hn         1 187       0.175000
     46 H14          4.2880    -2.5280    -1.2830 ha         1 187       0.152000
     47 H18          4.1020     1.6920    -0.3740 ha         1 187       0.137000
     48 H22          1.6800     1.5280    -0.0240 ha         1 187       0.145000
     49 H15          5.8860    -1.1470    -3.0490 h5         1 187       0.065800
     50 H12         -1.7850    -2.6820    -0.3920 ha         1 187       0.164000
     51 H17         10.0390    -0.0710    -0.4800 ha         1 187       0.131000
     52 H21          9.8910     0.8400     1.8550 ha         1 187       0.116000
     53 H25          7.6610     1.2400     2.9110 ha         1 187       0.114000
     54 H27          5.5570     0.7350     1.6320 ha         1 187       0.122000
@<TRIPOS>BOND
     1     1     2 ar  
     2     1     6 ar  
     3     1    38 1   
     4     2     3 ar  
     5     2    39 1   
     6     3     4 ar  
     7     3    40 1   
     8     4     5 ar  
     9     4    10 1   
    10     5     6 ar  
    11     5    41 1   
    12     6     7 1   
    13     7     8 2   
    14     7     9 1   
    15     8    42 1   
    16     9    43 1   
    17     9    44 1   
    18    10    11 1   
    19    10    24 1   
    20    11    27 2   
    21    12    13 1   
    22    12    26 1   
    23    12    45 1   
    24    13    14 ar  
    25    13    19 ar  
    26    14    15 ar  
    27    14    37 1   
    28    15    16 ar  
    29    15    46 1   
    30    16    17 1   
    31    16    18 ar  
    32    17    20 1   
    33    17    21 1   
    34    18    19 ar  
    35    18    47 1   
    36    19    48 1   
    37    20    22 ar  
    38    20    36 ar  
    39    21    23 2   
    40    21    49 1   
    41    22    23 1   
    42    22    33 ar  
    43    24    25 2   
    44    24    26 1   
    45    25    27 1   
    46    25    50 1   
    47    26    28 2   
    48    27    29 1   
    49    29    30 1   
    50    29    31 1   
    51    29    32 1   
    52    33    34 ar  
    53    33    51 1   
    54    34    35 ar  
    55    34    52 1   
    56    35    36 ar  
    57    35    53 1   
    58    36    54 1   
@<TRIPOS>SUBSTRUCTURE
     1 187         1 TEMP              0 ****  ****    0 ROOT
