@<TRIPOS>MOLECULE
187
   54    58     1     0     0
SMALL
abcg2


@<TRIPOS>ATOM
      1 C1          -3.4480     3.7790     1.5930 ca         1 187      -0.070000
      2 C2          -2.5170     2.8790     2.0900 ca         1 187      -0.101000
      3 C3          -2.4510     1.5890     1.5910 ca         1 187      -0.080000
      4 C4          -3.3200     1.2170     0.5770 ca         1 187      -0.001200
      5 C5          -4.2630     2.1000     0.0800 ca         1 187      -0.063000
      6 C6          -4.3360     3.3910     0.5930 ca         1 187      -0.186900
      7 C20         -5.3830     4.3220     0.0800 ce         1 187       0.661800
      8 N3          -6.5630     3.9620    -0.2510 n2         1 187      -0.835100
      9 N4          -5.0110     5.6300     0.0330 nv         1 187      -1.036200
     10 N1          -3.2850    -0.1030     0.0600 na         1 187       0.278000
     11 N6          -4.4050    -0.8010     0.0150 nc         1 187      -0.436800
     12 N5           0.1280    -1.1660    -0.3510 ns         1 187      -0.143000
     13 C7           1.4930    -0.9050    -0.5090 ca         1 187      -0.076000
     14 C44          2.3910    -1.4260     0.4160 ca         1 187       0.149000
     15 C14          3.7520    -1.2480     0.3170 ca         1 187      -0.140000
     16 C16          4.2450    -0.4840    -0.7340 ca         1 187       0.026800
     17 N7           5.6310    -0.2780    -0.8570 na         1 187      -0.097400
     18 C18          3.3750     0.0610    -1.6690 ca         1 187      -0.116000
     19 C22          2.0120    -0.1650    -1.5660 ca         1 187      -0.074000
     20 C9           6.5100     0.1460     0.1180 ca         1 187      -0.072200
     21 C15          6.3720    -0.4660    -1.9890 cc         1 187       0.428700
     22 C23          7.7600     0.1820    -0.5190 ca         1 187       0.068400
     23 N2           7.6340    -0.2100    -1.8330 nd         1 187      -0.563100
     24 C13         -2.2150    -0.8280    -0.3580 cc         1 187      -0.219600
     25 C12         -2.6900    -2.0730    -0.6940 cd         1 187      -0.142000
     26 C8          -0.8600    -0.2570    -0.5450 c          1 187       0.645700
     27 C10         -4.0640    -1.9860    -0.4450 cd         1 187       0.125300
     28 O3          -0.6860     0.9000    -0.8640 o          1 187      -0.552100
     29 C11         -5.0800    -3.0580    -0.6140 c3         1 187       0.297700
     30 F1          -6.3190    -2.5730    -0.6280 f          1 187      -0.103333
     31 F3          -4.8830    -3.7270    -1.7550 f          1 187      -0.103333
     32 F2          -5.0140    -3.9590     0.3760 f          1 187      -0.103333
     33 C17          8.8900     0.5870     0.1890 ca         1 187      -0.047000
     34 C21          8.7290     0.9530     1.5130 ca         1 187      -0.131000
     35 C25          7.4680     0.9260     2.1290 ca         1 187      -0.092000
     36 C27          6.3340     0.5240     1.4440 ca         1 187      -0.112000
     37 F4           1.9060    -2.1520     1.4310 f          1 187      -0.174000
     38 H1          -3.4980     4.7770     2.0080 ha         1 187       0.132000
     39 H2          -1.8480     3.1790     2.8850 ha         1 187       0.127000
     40 H3          -1.7440     0.8820     2.0050 ha         1 187       0.127000
     41 H5          -4.9220     1.7850    -0.7200 ha         1 187       0.143000
     42 HN3         -6.7080     2.9790    -0.0550 hn         1 187       0.394400
     43 HN41        -5.6590     6.2640    -0.4080 hn         1 187       0.473000
     44 HN42        -4.0420     5.8520    -0.1180 hn         1 187       0.473000
     45 HN5         -0.1280    -2.0530     0.0580 hn         1 187       0.175000
     46 H14          4.4080    -1.7100     1.0420 ha         1 187       0.152000
     47 H18          3.7560     0.6610    -2.4840 ha         1 187       0.137000
     48 H22          1.3560     0.2450    -2.3190 ha         1 187       0.145000
     49 H15          5.9120    -0.8160    -2.9020 h5         1 187       0.065800
     50 H12         -2.1330    -2.9030    -1.0980 ha         1 187       0.164000
     51 H17          9.8610     0.6160    -0.2880 ha         1 187       0.131000
     52 H21          9.5890     1.2700     2.0870 ha         1 187       0.116000
     53 H25          7.3780     1.2260     3.1640 ha         1 187       0.114000
     54 H27          5.3640     0.5160     1.9250 ha         1 187       0.122000
@<TRIPOS>BOND
     1     1     2 ar  
     2     1     6 ar  
     3     1    38 1   
     4     2     3 ar  
     5     2    39 1   
     6     3     4 ar  
     7     3    40 1   
     8     4     5 ar  
     9     4    10 1   
    10     5     6 ar  
    11     5    41 1   
    12     6     7 1   
    13     7     8 2   
    14     7     9 1   
    15     8    42 1   
    16     9    43 1   
    17     9    44 1   
    18    10    11 1   
    19    10    24 1   
    20    11    27 2   
    21    12    13 1   
    22    12    26 1   
    23    12    45 1   
    24    13    14 ar  
    25    13    19 ar  
    26    14    15 ar  
    27    14    37 1   
    28    15    16 ar  
    29    15    46 1   
    30    16    17 1   
    31    16    18 ar  
    32    17    20 1   
    33    17    21 1   
    34    18    19 ar  
    35    18    47 1   
    36    19    48 1   
    37    20    22 ar  
    38    20    36 ar  
    39    21    23 2   
    40    21    49 1   
    41    22    23 1   
    42    22    33 ar  
    43    24    25 2   
    44    24    26 1   
    45    25    27 1   
    46    25    50 1   
    47    26    28 2   
    48    27    29 1   
    49    29    30 1   
    50    29    31 1   
    51    29    32 1   
    52    33    34 ar  
    53    33    51 1   
    54    34    35 ar  
    55    34    52 1   
    56    35    36 ar  
    57    35    53 1   
    58    36    54 1   
@<TRIPOS>SUBSTRUCTURE
     1 187         1 TEMP              0 ****  ****    0 ROOT
