@<TRIPOS>MOLECULE
189
   84    87     1     0     0
SMALL
bcc


@<TRIPOS>ATOM
      1 C1          -1.6450     2.3270     2.9170 ca         1 189      -0.076000
      2 C6          -1.1540     2.6500     1.6620 ca         1 189      -0.149500
      3 C5          -1.8720     2.3140     0.5200 ca         1 189      -0.035000
      4 C4          -3.0840     1.6570     0.6600 ca         1 189      -0.287500
      5 S10         -4.0380     1.2150    -0.7700 sy         1 189       1.329200
      6 O15         -5.4120     1.6400    -0.5330 o          1 189      -0.615800
      7 O14         -3.3300     1.7340    -1.9310 o          1 189      -0.615800
      8 N13         -4.0450    -0.4190    -0.8010 n3         1 189      -0.797500
      9 C20         -2.7820    -1.1190    -1.0100 c3         1 189       0.230800
     10 C21         -2.1390    -1.7200     0.2420 c5         1 189      -0.092700
     11 C25         -0.6280    -1.9280     0.0180 c5         1 189      -0.086700
     12 C26          0.1670    -0.6920     0.4070 c3         1 189       0.099000
     13 N27          1.5180    -0.6670    -0.1270 n          1 189      -0.481800
     14 C35          2.5530    -1.1110     0.6180 c          1 189       0.663100
     15 O46          2.4120    -1.5610     1.7420 o          1 189      -0.572100
     16 C36          3.9400    -1.0280    -0.0140 c3         1 189       0.061400
     17 O37          4.8750    -1.4840     0.9300 os         1 189      -0.313900
     18 C38          6.1240    -0.9330     0.8410 ca         1 189       0.088100
     19 C43          6.3890     0.2450     1.5400 ca         1 189      -0.080300
     20 C45          5.3180     0.9310     2.3380 c3         1 189      -0.045300
     21 C42          7.6800     0.7650     1.4790 ca         1 189      -0.126500
     22 C41          8.6680     0.1330     0.7390 ca         1 189      -0.124000
     23 C40          8.3780    -1.0380     0.0540 ca         1 189      -0.126500
     24 C39          7.1010    -1.5890     0.0900 ca         1 189      -0.080300
     25 C44          6.7790    -2.8580    -0.6430 c3         1 189      -0.045300
     26 C24         -0.3280    -3.1930     0.8070 c5         1 189       0.158800
     27 N23         -1.5000    -3.9990     0.5250 n7         1 189      -0.813200
     28 C22         -2.6510    -3.1140     0.6710 c5         1 189       0.159800
     29 C3          -3.5940     1.3370     1.9150 ca         1 189      -0.035000
     30 C2          -2.8660     1.6710     3.0430 ca         1 189      -0.149500
     31 C16         -5.5310    -1.7210    -3.0590 c3         1 189      -0.086600
     32 C17         -6.2240    -1.2100    -1.8030 c3         1 189      -0.084700
     33 C19         -5.2870    -1.1610    -0.5960 c3         1 189       0.241800
     34 C18         -7.4280    -2.0780    -1.4510 c3         1 189      -0.086600
     35 C28          1.6370    -0.1470    -1.4760 c3         1 189       0.147300
     36 C29          1.3240     1.3280    -1.5650 ca         1 189      -0.121300
     37 C34          1.8490     2.2280    -0.6420 ca         1 189      -0.117000
     38 C33          1.5700     3.5830    -0.7400 ca         1 189      -0.126500
     39 C32          0.7580     4.0570    -1.7640 ca         1 189      -0.125000
     40 C31          0.2270     3.1660    -2.6850 ca         1 189      -0.126500
     41 C30          0.5070     1.8090    -2.5820 ca         1 189      -0.117000
     42 H1          -1.0810     2.5870     3.8020 ha         1 189       0.135000
     43 H6          -0.2060     3.1610     1.5600 ha         1 189       0.137500
     44 H5          -1.4800     2.5620    -0.4580 ha         1 189       0.152500
     45 H201        -2.9380    -1.9020    -1.7580 h1         1 189       0.061200
     46 H202        -2.0820    -0.4210    -1.4760 h1         1 189       0.061200
     47 H21         -2.2740    -1.0190     1.0710 hc         1 189       0.058700
     48 H25         -0.4610    -2.1440    -1.0450 hc         1 189       0.062700
     49 H261        -0.3390     0.1990     0.0300 h1         1 189       0.062700
     50 H262         0.1940    -0.5840     1.4910 h1         1 189       0.062700
     51 H361         3.9710    -1.6480    -0.9180 h1         1 189       0.048700
     52 H362         4.1570    -0.0010    -0.3280 h1         1 189       0.048700
     53 H451         4.7130     0.2270     2.9080 hc         1 189       0.045867
     54 H452         5.7550     1.6470     3.0320 hc         1 189       0.045867
     55 H453         4.6350     1.4900     1.6940 hc         1 189       0.045867
     56 H42          7.9090     1.6770     2.0180 ha         1 189       0.132000
     57 H41          9.6670     0.5480     0.7050 ha         1 189       0.133000
     58 H40          9.1510    -1.5320    -0.5220 ha         1 189       0.132000
     59 H441         6.3620    -3.6150     0.0220 hc         1 189       0.045867
     60 H442         6.0480    -2.6940    -1.4380 hc         1 189       0.045867
     61 H443         7.6730    -3.2750    -1.1050 hc         1 189       0.045867
     62 H241        -0.2060    -2.9490     1.8730 h1         1 189       0.049700
     63 H242         0.5850    -3.6930     0.4770 h1         1 189       0.049700
     64 H23         -1.5680    -4.7990     1.1390 hn         1 189       0.361800
     65 H221        -3.0280    -3.0680     1.7000 h1         1 189       0.036200
     66 H222        -3.4760    -3.4730     0.0500 h1         1 189       0.036200
     67 H3          -4.5440     0.8280     2.0190 ha         1 189       0.152500
     68 H2          -3.2520     1.4240     4.0230 ha         1 189       0.137500
     69 H161        -6.2290    -1.7500    -3.8960 hc         1 189       0.035200
     70 H162        -4.6990    -1.0810    -3.3560 hc         1 189       0.035200
     71 H163        -5.1450    -2.7340    -2.9180 hc         1 189       0.035200
     72 H17         -6.5820    -0.1950    -1.9980 hc         1 189       0.069700
     73 H191        -5.8190    -0.7740     0.2740 h1         1 189       0.051700
     74 H192        -4.9920    -2.1780    -0.3360 h1         1 189       0.051700
     75 H181        -7.1250    -3.1100    -1.2620 hc         1 189       0.035200
     76 H182        -7.9420    -1.7140    -0.5590 hc         1 189       0.035200
     77 H183        -8.1520    -2.0910    -2.2660 hc         1 189       0.035200
     78 H281         2.6330    -0.3380    -1.8710 h1         1 189       0.055200
     79 H282         0.9600    -0.7030    -2.1320 h1         1 189       0.055200
     80 H34          2.4680     1.8750     0.1740 ha         1 189       0.133000
     81 H33          1.9850     4.2700    -0.0140 ha         1 189       0.137500
     82 H32          0.5340     5.1140    -1.8360 ha         1 189       0.135000
     83 H31         -0.4150     3.5230    -3.4800 ha         1 189       0.137500
     84 H30          0.0760     1.1190    -3.2980 ha         1 189       0.133000
@<TRIPOS>BOND
     1     1     2 ar  
     2     1    30 ar  
     3     1    42 1   
     4     2     3 ar  
     5     2    43 1   
     6     3     4 ar  
     7     3    44 1   
     8     4     5 1   
     9     4    29 ar  
    10     5     6 2   
    11     5     7 2   
    12     5     8 1   
    13     8     9 1   
    14     8    33 1   
    15     9    10 1   
    16     9    45 1   
    17     9    46 1   
    18    10    11 1   
    19    10    28 1   
    20    10    47 1   
    21    11    12 1   
    22    11    26 1   
    23    11    48 1   
    24    12    13 1   
    25    12    49 1   
    26    12    50 1   
    27    13    14 1   
    28    13    35 1   
    29    14    15 2   
    30    14    16 1   
    31    16    17 1   
    32    16    51 1   
    33    16    52 1   
    34    17    18 1   
    35    18    19 ar  
    36    18    24 ar  
    37    19    20 1   
    38    19    21 ar  
    39    20    53 1   
    40    20    54 1   
    41    20    55 1   
    42    21    22 ar  
    43    21    56 1   
    44    22    23 ar  
    45    22    57 1   
    46    23    24 ar  
    47    23    58 1   
    48    24    25 1   
    49    25    59 1   
    50    25    60 1   
    51    25    61 1   
    52    26    27 1   
    53    26    62 1   
    54    26    63 1   
    55    27    28 1   
    56    27    64 1   
    57    28    65 1   
    58    28    66 1   
    59    29    30 ar  
    60    29    67 1   
    61    30    68 1   
    62    31    32 1   
    63    31    69 1   
    64    31    70 1   
    65    31    71 1   
    66    32    33 1   
    67    32    34 1   
    68    32    72 1   
    69    33    73 1   
    70    33    74 1   
    71    34    75 1   
    72    34    76 1   
    73    34    77 1   
    74    35    36 1   
    75    35    78 1   
    76    35    79 1   
    77    36    37 ar  
    78    36    41 ar  
    79    37    38 ar  
    80    37    80 1   
    81    38    39 ar  
    82    38    81 1   
    83    39    40 ar  
    84    39    82 1   
    85    40    41 ar  
    86    40    83 1   
    87    41    84 1   
@<TRIPOS>SUBSTRUCTURE
     1 189         1 TEMP              0 ****  ****    0 ROOT
