@<TRIPOS>MOLECULE
189
   84    87     1     0     0
SMALL
No Charge or Current Charge


@<TRIPOS>ATOM
      1 C1          -0.9080     2.1890     2.4070 ca         1 189      -0.058000
      2 C6          -1.2360     2.7530     1.1630 ca         1 189      -0.131500
      3 C5          -2.4180     2.3760     0.5040 ca         1 189      -0.017000
      4 C4          -3.2810     1.4280     1.0940 ca         1 189      -0.287500
      5 S10         -4.7870     0.9050     0.2480 sy         1 189       1.187600
      6 O15         -5.8330     0.7930     1.2710 o          1 189      -0.545000
      7 O14         -4.9760     1.6770    -0.9850 o          1 189      -0.545000
      8 N13         -4.4090    -0.6940    -0.1990 n3         1 189      -0.797500
      9 C20         -3.0800    -0.9370    -0.8000 c3         1 189       0.230800
     10 C21         -2.2120    -1.9130     0.0330 c5         1 189      -0.092700
     11 C25         -0.6880    -1.8440    -0.2580 c5         1 189      -0.086700
     12 C26         -0.0000    -0.5580     0.2590 c3         1 189       0.099000
     13 N27          1.4320    -0.4410    -0.1090 n          1 189      -0.414800
     14 C35          2.4490    -0.7610     0.8310 c          1 189       0.596100
     15 O46          2.1480    -1.1660     1.9510 o          1 189      -0.572100
     16 C36          3.9370    -0.6020     0.4110 c3         1 189       0.084600
     17 O37          4.8580    -0.9250     1.4770 os         1 189      -0.337100
     18 C38          6.2100    -0.8060     1.2510 ca         1 189       0.088100
     19 C43          6.8380     0.4600     1.3230 ca         1 189      -0.080300
     20 C45          6.0540     1.7240     1.6690 c3         1 189      -0.045300
     21 C42          8.2210     0.5560     1.0770 ca         1 189      -0.108500
     22 C41          8.9700    -0.5920     0.7730 ca         1 189      -0.106000
     23 C40          8.3450    -1.8480     0.7150 ca         1 189      -0.108500
     24 C39          6.9630    -1.9650     0.9560 ca         1 189      -0.080300
     25 C44          6.2940    -3.3340     0.8890 c3         1 189      -0.045300
     26 C24         -0.2440    -3.1350     0.4650 c5         1 189       0.158800
     27 N23         -1.2190    -4.1400    -0.0200 n7         1 189      -0.868400
     28 C22         -2.5090    -3.4220    -0.2160 c5         1 189       0.159800
     29 C3          -2.9520     0.8660     2.3440 ca         1 189      -0.017000
     30 C2          -1.7670     1.2470     2.9970 ca         1 189      -0.131500
     31 C16         -5.4810    -1.1550    -3.1510 c3         1 189      -0.086600
     32 C17         -6.3330    -1.2310    -1.8600 c3         1 189      -0.084700
     33 C19         -5.5230    -1.5930    -0.5780 c3         1 189       0.241800
     34 C18         -7.5120    -2.2140    -2.0490 c3         1 189      -0.086600
     35 C28          1.7210     0.1070    -1.4590 c3         1 189       0.147300
     36 C29          1.2810     1.5570    -1.6270 ca         1 189      -0.121300
     37 C34          2.0300     2.6020    -1.0490 ca         1 189      -0.099000
     38 C33          1.6200     3.9380    -1.2030 ca         1 189      -0.108500
     39 C32          0.4570     4.2380    -1.9320 ca         1 189      -0.107000
     40 C31         -0.2970     3.2000    -2.5060 ca         1 189      -0.108500
     41 C30          0.1140     1.8650    -2.3550 ca         1 189      -0.099000
     42 H1           0.0110     2.4800     2.9120 ha         1 189       0.117000
     43 H6          -0.5700     3.4810     0.7060 ha         1 189       0.119500
     44 H5          -2.6540     2.8160    -0.4640 ha         1 189       0.134500
     45 H201        -3.1690    -1.3410    -1.8160 h1         1 189       0.061200
     46 H202        -2.5310     0.0060    -0.9130 h1         1 189       0.061200
     47 H21         -2.3910    -1.6710     1.0870 hc         1 189       0.058700
     48 H25         -0.4960    -1.9150    -1.3350 hc         1 189       0.062700
     49 H261        -0.5300     0.3110    -0.1470 h1         1 189       0.062700
     50 H262        -0.1200    -0.5010     1.3490 h1         1 189       0.062700
     51 H361         4.1120    -1.2600    -0.4500 h1         1 189       0.048700
     52 H362         4.0840     0.4320     0.0800 h1         1 189       0.048700
     53 H451         5.2570     1.5210     2.3950 hc         1 189       0.045867
     54 H452         6.7040     2.4890     2.1110 hc         1 189       0.045867
     55 H453         5.5940     2.1580     0.7740 hc         1 189       0.045867
     56 H42          8.7190     1.5220     1.1240 ha         1 189       0.114000
     57 H41         10.0390    -0.5080     0.5850 ha         1 189       0.115000
     58 H40          8.9380    -2.7290     0.4820 ha         1 189       0.114000
     59 H441         5.7330    -3.5440     1.8070 hc         1 189       0.045867
     60 H442         5.5930    -3.3860     0.0470 hc         1 189       0.045867
     61 H443         7.0260    -4.1400     0.7600 hc         1 189       0.045867
     62 H241        -0.3180    -3.0150     1.5560 h1         1 189       0.049700
     63 H242         0.7900    -3.4190     0.2250 h1         1 189       0.049700
     64 H23         -1.3250    -4.8940     0.6720 hn         1 189       0.417000
     65 H221        -3.2820    -3.7900     0.4730 h1         1 189       0.036200
     66 H222        -2.8710    -3.5930    -1.2390 h1         1 189       0.036200
     67 H3          -3.6070     0.1270     2.8050 ha         1 189       0.134500
     68 H2          -1.5130     0.8080     3.9590 ha         1 189       0.119500
     69 H161        -6.1180    -0.9650    -4.0230 hc         1 189       0.035200
     70 H162        -4.7540    -0.3370    -3.0940 hc         1 189       0.035200
     71 H163        -4.9410    -2.0940    -3.3200 hc         1 189       0.035200
     72 H17         -6.7790    -0.2420    -1.7060 hc         1 189       0.069700
     73 H191        -6.2330    -1.6420     0.2580 h1         1 189       0.051700
     74 H192        -5.1410    -2.6150    -0.7000 h1         1 189       0.051700
     75 H181        -7.1460    -3.2350    -2.2200 hc         1 189       0.035200
     76 H182        -8.1550    -2.2250    -1.1600 hc         1 189       0.035200
     77 H183        -8.1290    -1.9230    -2.9070 hc         1 189       0.035200
     78 H281         2.7840     0.0310    -1.7120 h1         1 189       0.055200
     79 H282         1.1940    -0.5110    -2.1980 h1         1 189       0.055200
     80 H34          2.9300     2.3820    -0.4810 ha         1 189       0.115000
     81 H33          2.2030     4.7400    -0.7560 ha         1 189       0.119500
     82 H32          0.1390     5.2710    -2.0490 ha         1 189       0.117000
     83 H31         -1.2000     3.4310    -3.0680 ha         1 189       0.119500
     84 H30         -0.4780     1.0690    -2.8020 ha         1 189       0.115000
@<TRIPOS>BOND
     1     1     2 ar  
     2     1    30 ar  
     3     1    42 1   
     4     2     3 ar  
     5     2    43 1   
     6     3     4 ar  
     7     3    44 1   
     8     4     5 1   
     9     4    29 ar  
    10     5     6 2   
    11     5     7 2   
    12     5     8 1   
    13     8     9 1   
    14     8    33 1   
    15     9    10 1   
    16     9    45 1   
    17     9    46 1   
    18    10    11 1   
    19    10    28 1   
    20    10    47 1   
    21    11    12 1   
    22    11    26 1   
    23    11    48 1   
    24    12    13 1   
    25    12    49 1   
    26    12    50 1   
    27    13    14 1   
    28    13    35 1   
    29    14    15 2   
    30    14    16 1   
    31    16    17 1   
    32    16    51 1   
    33    16    52 1   
    34    17    18 1   
    35    18    19 ar  
    36    18    24 ar  
    37    19    20 1   
    38    19    21 ar  
    39    20    53 1   
    40    20    54 1   
    41    20    55 1   
    42    21    22 ar  
    43    21    56 1   
    44    22    23 ar  
    45    22    57 1   
    46    23    24 ar  
    47    23    58 1   
    48    24    25 1   
    49    25    59 1   
    50    25    60 1   
    51    25    61 1   
    52    26    27 1   
    53    26    62 1   
    54    26    63 1   
    55    27    28 1   
    56    27    64 1   
    57    28    65 1   
    58    28    66 1   
    59    29    30 ar  
    60    29    67 1   
    61    30    68 1   
    62    31    32 1   
    63    31    69 1   
    64    31    70 1   
    65    31    71 1   
    66    32    33 1   
    67    32    34 1   
    68    32    72 1   
    69    33    73 1   
    70    33    74 1   
    71    34    75 1   
    72    34    76 1   
    73    34    77 1   
    74    35    36 1   
    75    35    78 1   
    76    35    79 1   
    77    36    37 ar  
    78    36    41 ar  
    79    37    38 ar  
    80    37    80 1   
    81    38    39 ar  
    82    38    81 1   
    83    39    40 ar  
    84    39    82 1   
    85    40    41 ar  
    86    40    83 1   
    87    41    84 1   
@<TRIPOS>SUBSTRUCTURE
     1 189         1 TEMP              0 ****  ****    0 ROOT
