@<TRIPOS>MOLECULE
18A
   43    44     1     0     0
SMALL
abcg2


@<TRIPOS>ATOM
      1 C2           7.4210    -0.3570     0.3470 c3         1 18A      -0.158400
      2 C3           6.0880     0.2760     0.0060 c          1 18A       0.605100
      3 C4          -2.9920    -0.2870     0.0450 ca         1 18A      -0.085800
      4 O4           5.9910     1.3940    -0.4650 o          1 18A      -0.575100
      5 C5          -3.8740    -1.3500    -0.1600 ca         1 18A      -0.063500
      6 C6           3.6570    -0.2400     0.2000 ca         1 18A      -0.014000
      7 C7           2.7770    -1.2820     0.5160 ca         1 18A      -0.153000
      8 C1           8.5930     0.2840    -0.3740 c3         1 18A      -0.078100
      9 C8           1.4100    -1.1050     0.4630 ca         1 18A      -0.072000
     10 N5           5.0210    -0.5140     0.3030 ns         1 18A      -0.149000
     11 C9           0.8530     0.1230     0.0870 ca         1 18A      -0.078800
     12 C10          1.7420     1.1540    -0.2190 ca         1 18A      -0.072000
     13 C11          3.1180     0.9920    -0.1730 ca         1 18A      -0.153000
     14 C12         -0.5830     0.3730     0.0150 ce         1 18A      -0.152200
     15 C13         -1.5550    -0.5480     0.0840 cf         1 18A      -0.146200
     16 C14         -5.2490    -1.1760    -0.2110 ca         1 18A      -0.137800
     17 C15         -5.7590     0.1130    -0.0370 ca         1 18A       0.145100
     18 C16         -4.9100     1.2050     0.1830 ca         1 18A      -0.137800
     19 C17         -3.5420     0.9850     0.2200 ca         1 18A      -0.063500
     20 O18         -7.1020     0.2470    -0.0840 oh         1 18A      -0.538100
     21 C19         -5.4780     2.5800     0.3910 c3         1 18A      -0.041300
     22 C21         -6.1730    -2.3350    -0.4420 c3         1 18A      -0.041300
     23 H1           7.5520    -0.2660     1.4310 hc         1 18A       0.057200
     24 H2           7.3880    -1.4290     0.1430 hc         1 18A       0.057200
     25 H3          -3.4740    -2.3490    -0.2910 ha         1 18A       0.112500
     26 H4           3.1730    -2.2440     0.8200 ha         1 18A       0.127500
     27 H5           8.5100     0.1690    -1.4550 hc         1 18A       0.045033
     28 H6           8.6700     1.3480    -0.1550 hc         1 18A       0.045033
     29 H7           9.5240    -0.1880    -0.0610 hc         1 18A       0.045033
     30 H8           0.7730    -1.9390     0.7320 ha         1 18A       0.113000
     31 H9           5.2410    -1.4310     0.6620 hn         1 18A       0.148000
     32 H10          1.3500     2.1210    -0.5100 ha         1 18A       0.113000
     33 H11          3.7540     1.8250    -0.4220 ha         1 18A       0.127500
     34 H12         -0.8540     1.4160    -0.1210 ha         1 18A       0.171000
     35 H13         -1.2850    -1.5970     0.1640 ha         1 18A       0.170000
     36 H14         -2.8950     1.8340     0.4060 ha         1 18A       0.112500
     37 H15         -7.3670     1.1600     0.0690 ho         1 18A       0.466000
     38 H16         -6.1370     2.6260     1.2620 hc         1 18A       0.042367
     39 H17         -4.6820     3.3040     0.5560 hc         1 18A       0.042367
     40 H18         -6.0510     2.9260    -0.4720 hc         1 18A       0.042367
     41 H19         -6.8820    -2.4590     0.3780 hc         1 18A       0.042367
     42 H20         -6.7610    -2.2100    -1.3530 hc         1 18A       0.042367
     43 H21         -5.6110    -3.2630    -0.5370 hc         1 18A       0.042367
@<TRIPOS>BOND
     1     1     2 1   
     2     1     8 1   
     3     1    23 1   
     4     1    24 1   
     5     2     4 2   
     6     2    10 1   
     7     3     5 ar  
     8     3    15 1   
     9     3    19 ar  
    10     5    16 ar  
    11     5    25 1   
    12     6     7 ar  
    13     6    10 1   
    14     6    13 ar  
    15     7     9 ar  
    16     7    26 1   
    17     8    27 1   
    18     8    28 1   
    19     8    29 1   
    20     9    11 ar  
    21     9    30 1   
    22    10    31 1   
    23    11    12 ar  
    24    11    14 1   
    25    12    13 ar  
    26    12    32 1   
    27    13    33 1   
    28    14    15 2   
    29    14    34 1   
    30    15    35 1   
    31    16    17 ar  
    32    16    22 1   
    33    17    18 ar  
    34    17    20 1   
    35    18    19 ar  
    36    18    21 1   
    37    19    36 1   
    38    20    37 1   
    39    21    38 1   
    40    21    39 1   
    41    21    40 1   
    42    22    41 1   
    43    22    42 1   
    44    22    43 1   
@<TRIPOS>SUBSTRUCTURE
     1 18A         1 TEMP              0 ****  ****    0 ROOT
