@<TRIPOS>MOLECULE
18A
   43    44     1     0     0
SMALL
No Charge or Current Charge


@<TRIPOS>ATOM
      1 C2           7.5870    -0.2810     0.5120 c3         1 18A      -0.158400
      2 C3           6.2360     0.4510     0.4970 c          1 18A       0.605100
      3 C4          -3.0300    -0.2700     0.0080 ca         1 18A      -0.085800
      4 O4           6.1720     1.6700     0.6030 o          1 18A      -0.575100
      5 C5          -3.8780    -1.3880    -0.1120 ca         1 18A      -0.063500
      6 C6           3.7360    -0.1370     0.3410 ca         1 18A      -0.014000
      7 C7           2.8730    -1.2480     0.3210 ca         1 18A      -0.153000
      8 C1           8.3580    -0.0900    -0.8130 c3         1 18A      -0.078100
      9 C8           1.4790    -1.0790     0.2680 ca         1 18A      -0.072000
     10 N5           5.1340    -0.3900     0.3930 ns         1 18A      -0.149000
     11 C9           0.9170     0.2140     0.2300 ca         1 18A      -0.078800
     12 C10          1.7800     1.3260     0.2490 ca         1 18A      -0.072000
     13 C11          3.1740     1.1570     0.3020 ca         1 18A      -0.153000
     14 C12         -0.5600     0.4350     0.1740 ce         1 18A      -0.152200
     15 C13         -1.5670    -0.4800     0.0650 cf         1 18A      -0.146200
     16 C14         -5.2770    -1.2340    -0.1700 ca         1 18A      -0.137800
     17 C15         -5.8370     0.0590    -0.1060 ca         1 18A       0.145100
     18 C16         -5.0010     1.1910     0.0140 ca         1 18A      -0.137800
     19 C17         -3.6040     1.0170     0.0710 ca         1 18A      -0.063500
     20 O18         -7.1950     0.2110    -0.1620 oh         1 18A      -0.538100
     21 C19         -5.5810     2.6030     0.0860 c3         1 18A      -0.041300
     22 C21         -6.1650    -2.4690    -0.3010 c3         1 18A      -0.041300
     23 H1           8.1990     0.1260     1.3260 hc         1 18A       0.057200
     24 H2           7.4330    -1.3560     0.6670 hc         1 18A       0.057200
     25 H3          -3.4470    -2.3850    -0.1610 ha         1 18A       0.112500
     26 H4           3.2840    -2.2550     0.3490 ha         1 18A       0.127500
     27 H5           7.7800    -0.4830    -1.6590 hc         1 18A       0.045033
     28 H6           8.5600     0.9730    -0.9970 hc         1 18A       0.045033
     29 H7           9.3180    -0.6190    -0.7780 hc         1 18A       0.045033
     30 H8           0.8470    -1.9620     0.2590 ha         1 18A       0.113000
     31 H9           5.3720    -1.3720     0.3370 hn         1 18A       0.148000
     32 H10          1.3700     2.3340     0.2190 ha         1 18A       0.113000
     33 H11          3.7970     2.0450     0.3080 ha         1 18A       0.127500
     34 H12         -0.8340     1.4880     0.2270 ha         1 18A       0.171000
     35 H13         -1.2810    -1.5290     0.0060 ha         1 18A       0.170000
     36 H14         -2.9700     1.8930     0.1640 ha         1 18A       0.112500
     37 H15         -7.3980     1.1670    -0.1050 ho         1 18A       0.466000
     38 H16         -6.2420     2.7180     0.9530 hc         1 18A       0.042367
     39 H17         -4.7940     3.3620     0.1770 hc         1 18A       0.042367
     40 H18         -6.1560     2.8430    -0.8170 hc         1 18A       0.042367
     41 H19         -6.8530    -2.5500     0.5500 hc         1 18A       0.042367
     42 H20         -6.7670    -2.4260    -1.2160 hc         1 18A       0.042367
     43 H21         -5.5790    -3.3950    -0.3380 hc         1 18A       0.042367
@<TRIPOS>BOND
     1     1     2 1   
     2     1     8 1   
     3     1    23 1   
     4     1    24 1   
     5     2     4 2   
     6     2    10 1   
     7     3     5 ar  
     8     3    15 1   
     9     3    19 ar  
    10     5    16 ar  
    11     5    25 1   
    12     6     7 ar  
    13     6    10 1   
    14     6    13 ar  
    15     7     9 ar  
    16     7    26 1   
    17     8    27 1   
    18     8    28 1   
    19     8    29 1   
    20     9    11 ar  
    21     9    30 1   
    22    10    31 1   
    23    11    12 ar  
    24    11    14 1   
    25    12    13 ar  
    26    12    32 1   
    27    13    33 1   
    28    14    15 2   
    29    14    34 1   
    30    15    35 1   
    31    16    17 ar  
    32    16    22 1   
    33    17    18 ar  
    34    17    20 1   
    35    18    19 ar  
    36    18    21 1   
    37    19    36 1   
    38    20    37 1   
    39    21    38 1   
    40    21    39 1   
    41    21    40 1   
    42    22    41 1   
    43    22    42 1   
    44    22    43 1   
@<TRIPOS>SUBSTRUCTURE
     1 18A         1 TEMP              0 ****  ****    0 ROOT
