@<TRIPOS>MOLECULE
18B
   77    80     1     0     0
SMALL
bcc


@<TRIPOS>ATOM
      1 NA          -0.3990     1.4720    -0.3980 na         1 18B      -0.134100
      2 NB           2.5120     1.2680    -1.1340 ns         1 18B      -0.477100
      3 OB           4.1980    -0.0860    -1.9260 o          1 18B      -0.617500
      4 NC           2.1770    -1.2290     1.0220 ns         1 18B      -0.466100
      5 ND          -0.3980    -1.2600    -0.2520 nc         1 18B      -0.663300
      6 C1A         -1.7580     1.3470    -0.4540 cc         1 18B      -0.140100
      7 O1A         -6.1760     4.2070     2.0470 o          1 18B      -0.844800
      8 C1B          2.4270     2.5380    -0.5900 cc         1 18B      -0.000400
      9 C1C          3.3620    -0.9240     1.6380 c          1 18B       0.700700
     10 C1D         -0.1380    -2.5540    -0.3450 cd         1 18B       0.472900
     11 C2A         -2.2990     2.6440    -0.4460 cd         1 18B      -0.036300
     12 O2A         -6.4280     3.6510    -0.0960 o          1 18B      -0.844800
     13 C2B          3.8020     3.0030    -0.4070 cc         1 18B      -0.028200
     14 C2C          4.2450    -2.0930     1.4200 cd         1 18B      -0.177400
     15 C2D         -1.3300    -3.3240    -0.6380 cd         1 18B      -0.285800
     16 C3A         -1.2240     3.5370    -0.3630 cd         1 18B      -0.143300
     17 C3B          4.6400     2.0460    -0.8520 cd         1 18B      -0.200400
     18 C3C          3.5480    -3.0180     0.7190 cc         1 18B      -0.018000
     19 C3D         -2.3530    -2.4210    -0.7000 cc         1 18B      -0.018200
     20 C4A         -0.0440     2.7740    -0.3400 cc         1 18B      -0.081100
     21 C4B          3.8250     0.9290    -1.3720 c          1 18B       0.698700
     22 C4C          2.2060    -2.4800     0.4610 cc         1 18B       0.044600
     23 C4D         -1.7520    -1.1250    -0.4730 cc         1 18B       0.006600
     24 CAA         -3.7460     3.0060    -0.4770 c3         1 18B      -0.011100
     25 CAB          6.1280     2.0050    -0.8660 c3         1 18B      -0.002200
     26 CBA         -4.2770     3.3700     0.9080 c3         1 18B      -0.202400
     27 CBB          6.6970     0.9980     0.1330 c3         1 18B      -0.089100
     28 CBC          4.9500    -5.0650     0.7560 c2         1 18B      -0.217000
     29 CGA         -5.7610     3.7820     0.9490 c          1 18B       0.930600
     30 CGD         -6.0200    -3.2550     0.3320 c          1 18B       0.931600
     31 CHA         -2.3890     0.0920    -0.5240 cf         1 18B       0.095800
     32 CHB          1.3110     3.2320    -0.2760 ce         1 18B      -0.073200
     33 CMA         -1.3130     5.0260    -0.3290 c3         1 18B      -0.012800
     34 CMB          4.1320     4.3110     0.2180 c3         1 18B      -0.043900
     35 CMD         -1.4270    -4.8030    -0.8150 c3         1 18B      -0.009900
     36 HNA          0.1720     0.6400    -0.2940 hn         1 18B       0.333700
     37 HNB          1.7630     0.8020    -1.6210 hn         1 18B       0.344500
     38 HNC          1.3440    -0.6620     1.0490 hn         1 18B       0.366500
     39 HAA         -3.8910     3.8500    -1.1560 hc         1 18B       0.056200
     40 HAAA        -4.3350     2.1850    -0.8900 hc         1 18B       0.056200
     41 HAB          6.4730     1.7480    -1.8710 hc         1 18B       0.038200
     42 HABA         6.5250     2.9980    -0.6490 hc         1 18B       0.038200
     43 HAC          3.4270    -4.7190    -0.6140 ha         1 18B       0.130000
     44 HAD         -4.2850    -1.8820    -1.4300 hc         1 18B       0.054200
     45 HADA        -3.9190    -3.5830    -1.5380 hc         1 18B       0.054200
     46 HBA         -4.1370     2.5190     1.5840 hc         1 18B       0.022700
     47 HBAA        -3.6760     4.1780     1.3360 hc         1 18B       0.022700
     48 HBB          7.7870     1.0180     0.1180 hc         1 18B       0.037367
     49 HBBA         6.3650     1.2220     1.1470 hc         1 18B       0.037367
     50 HBBB         6.3770    -0.0160    -0.1050 hc         1 18B       0.037367
     51 HBC          5.1990    -6.0250     0.3230 ha         1 18B       0.109000
     52 HBCA         5.5180    -4.7660     1.6260 ha         1 18B       0.109000
     53 HBD         -4.0260    -3.7650     0.9670 hc         1 18B       0.024200
     54 HBDA        -4.3880    -2.0690     1.0790 hc         1 18B       0.024200
     55 HHA         -3.4650     0.0990    -0.6530 ha         1 18B       0.180000
     56 HHB          1.4520     4.2520     0.0560 ha         1 18B       0.142000
     57 HHD          1.3320    -4.1320    -0.4560 ha         1 18B       0.135000
     58 HMA         -1.5470     5.3960     0.6710 hc         1 18B       0.034367
     59 HMAA        -0.3830     5.4990    -0.6420 hc         1 18B       0.034367
     60 HMAB        -2.1000     5.3860    -0.9930 hc         1 18B       0.034367
     61 HMB          3.6100     5.1310    -0.2760 hc         1 18B       0.046367
     62 HMBA         3.8380     4.3280     1.2680 hc         1 18B       0.046367
     63 HMBB         5.1990     4.5160     0.1700 hc         1 18B       0.046367
     64 HMC          5.9860    -1.1290     2.1760 hc         1 18B       0.042700
     65 HMCA         5.7050    -2.7280     2.8490 hc         1 18B       0.042700
     66 HMCB         6.3170    -2.5750     1.2100 hc         1 18B       0.042700
     67 HMD         -0.4990    -5.3120    -0.5590 hc         1 18B       0.029033
     68 HMDA        -2.2090    -5.2300    -0.1850 hc         1 18B       0.029033
     69 HMDB        -1.6670    -5.0690    -1.8460 hc         1 18B       0.029033
     70 CAD         -3.8040    -2.7050    -0.8990 c3         1 18B      -0.019200
     71 CAC          3.9700    -4.3240     0.2380 ce         1 18B      -0.098000
     72 OC           3.6070     0.1000     2.2430 o          1 18B      -0.620500
     73 CBD         -4.5160    -2.9430     0.4320 c3         1 18B      -0.202400
     74 CHD          1.1710    -3.1100    -0.1390 cf         1 18B      -0.194600
     75 CMC          5.6340    -2.1310     1.9370 c3         1 18B      -0.027900
     76 O1D         -6.5420    -3.2530    -0.8000 o          1 18B      -0.844800
     77 O2D         -6.5980    -3.4840     1.4150 o          1 18B      -0.844800
@<TRIPOS>BOND
     1     1     6 1   
     2     1    20 1   
     3     1    36 1   
     4     2     8 1   
     5     2    21 1   
     6     2    37 1   
     7     3    21 2   
     8     4     9 1   
     9     4    22 1   
    10     4    38 1   
    11     5    10 2   
    12     5    23 1   
    13     6    11 2   
    14     6    31 1   
    15     7    29 1   
    16     8    13 1   
    17     8    32 2   
    18     9    14 1   
    19     9    72 2   
    20    10    15 1   
    21    10    74 1   
    22    11    16 1   
    23    11    24 1   
    24    12    29 1   
    25    13    17 2   
    26    13    34 1   
    27    14    18 2   
    28    14    75 1   
    29    15    19 2   
    30    15    35 1   
    31    16    20 2   
    32    16    33 1   
    33    17    21 1   
    34    17    25 1   
    35    18    22 1   
    36    18    71 1   
    37    19    23 1   
    38    19    70 1   
    39    20    32 1   
    40    22    74 2   
    41    23    31 2   
    42    24    26 1   
    43    24    39 1   
    44    24    40 1   
    45    25    27 1   
    46    25    41 1   
    47    25    42 1   
    48    26    29 1   
    49    26    46 1   
    50    26    47 1   
    51    27    48 1   
    52    27    49 1   
    53    27    50 1   
    54    28    51 1   
    55    28    52 1   
    56    28    71 2   
    57    30    73 1   
    58    30    76 1   
    59    30    77 1   
    60    31    55 1   
    61    32    56 1   
    62    33    58 1   
    63    33    59 1   
    64    33    60 1   
    65    34    61 1   
    66    34    62 1   
    67    34    63 1   
    68    35    67 1   
    69    35    68 1   
    70    35    69 1   
    71    43    71 1   
    72    44    70 1   
    73    45    70 1   
    74    53    73 1   
    75    54    73 1   
    76    57    74 1   
    77    64    75 1   
    78    65    75 1   
    79    66    75 1   
    80    70    73 1   
@<TRIPOS>SUBSTRUCTURE
     1 18B         1 TEMP              0 ****  ****    0 ROOT
