@<TRIPOS>MOLECULE
18B
   77    80     1     0     0
SMALL
No Charge or Current Charge


@<TRIPOS>ATOM
      1 NA          -0.2800     1.7140    -0.4900 na         1 18B      -0.083000
      2 NB           2.4410     1.8610    -1.8620 ns         1 18B      -0.410100
      3 OB           3.9230     0.3460    -2.7840 o          1 18B      -0.542000
      4 NC           2.3080    -1.3320     1.2780 ns         1 18B      -0.399100
      5 ND          -0.2780    -1.1930    -0.2080 nc         1 18B      -0.663300
      6 C1A         -1.6350     1.4330    -0.4210 cc         1 18B      -0.190800
      7 O1A         -6.1030     4.4960     1.1260 o          1 18B      -0.739500
      8 C1B          2.4530     2.8930    -0.9570 cc         1 18B      -0.000400
      9 C1C          3.4350    -1.0180     1.9590 c          1 18B       0.558200
     10 C1D         -0.0470    -2.4990    -0.2760 cd         1 18B       0.472900
     11 C2A         -2.2890     2.6440    -0.4220 cd         1 18B      -0.036300
     12 O2A         -6.6350     2.4150     0.9790 o          1 18B      -0.739500
     13 C2B          3.7900     3.0120    -0.4630 cc         1 18B      -0.028200
     14 C2C          4.3250    -2.1590     1.6560 cd         1 18B      -0.177400
     15 C2D         -1.2390    -3.2500    -0.5090 cd         1 18B      -0.285800
     16 C3A         -1.2960     3.6660    -0.4820 cd         1 18B      -0.143300
     17 C3B          4.5260     2.0320    -1.1070 cd         1 18B      -0.200400
     18 C3C          3.6730    -3.0670     0.8300 cc         1 18B      -0.018000
     19 C3D         -2.2440    -2.3240    -0.5770 cc         1 18B      -0.018200
     20 C4A         -0.0510     3.0830    -0.5370 cc         1 18B      -0.131800
     21 C4B          3.6540     1.2690    -2.0320 c          1 18B       0.556200
     22 C4C          2.3630    -2.5140     0.5920 cc         1 18B       0.044600
     23 C4D         -1.6360    -1.0430    -0.3890 cc         1 18B       0.006600
     24 CAA         -3.7820     2.8970    -0.3650 c3         1 18B      -0.011100
     25 CAB          5.9960     1.7080    -0.9950 c3         1 18B      -0.002200
     26 CBA         -4.3220     2.9310     1.0840 c3         1 18B      -0.202400
     27 CBB          6.2660     0.5620    -0.0050 c3         1 18B      -0.089100
     28 CBC          5.1310    -5.1140     0.7850 c2         1 18B      -0.317000
     29 CGA         -5.8110     3.3110     1.0800 c          1 18B       0.720000
     30 CGD         -6.0040    -2.9880     0.1540 c          1 18B       0.721000
     31 CHA         -2.2320     0.1970    -0.3710 cf         1 18B       0.045800
     32 CHB          1.2740     3.6960    -0.6450 ce         1 18B      -0.123200
     33 CMA         -1.5860     5.1490    -0.5050 c3         1 18B      -0.012800
     34 CMB          4.2360     4.0280     0.5530 c3         1 18B      -0.043900
     35 CMD         -1.3470    -4.7510    -0.6370 c3         1 18B      -0.009900
     36 HNA          0.4380     0.9950    -0.4910 hn         1 18B       0.384000
     37 HNB          1.6450     1.5890    -2.4250 hn         1 18B       0.344500
     38 HNC          1.4930    -0.7320     1.3030 hn         1 18B       0.366500
     39 HAA         -4.0150     3.8520    -0.8520 hc         1 18B       0.056200
     40 HAAA        -4.3270     2.1410    -0.9430 hc         1 18B       0.056200
     41 HAB          6.3980     1.4310    -1.9770 hc         1 18B       0.038200
     42 HABA         6.5560     2.5950    -0.6750 hc         1 18B       0.038200
     43 HAC          3.6560    -4.6440    -0.6470 ha         1 18B       0.180000
     44 HAD         -4.1210    -1.7740    -1.4720 hc         1 18B       0.054200
     45 HADA        -3.8470    -3.4960    -1.3790 hc         1 18B       0.054200
     46 HBA         -4.1810     1.9180     1.4810 hc         1 18B       0.022700
     47 HBAA        -3.7340     3.6960     1.6050 hc         1 18B       0.022700
     48 HBB          7.3400     0.3480     0.0520 hc         1 18B       0.037367
     49 HBBA         5.9140     0.8320     0.9970 hc         1 18B       0.037367
     50 HBBB         5.7490    -0.3510    -0.3220 hc         1 18B       0.037367
     51 HBC          5.4220    -6.0460     0.2980 ha         1 18B       0.159000
     52 HBCA         5.6520    -4.8710     1.7090 ha         1 18B       0.159000
     53 HBD         -4.0840    -3.4200     1.0880 hc         1 18B       0.024200
     54 HBDA        -4.4830    -1.6330     0.9340 hc         1 18B       0.024200
     55 HHA         -3.3190     0.1850    -0.4020 ha         1 18B       0.230000
     56 HHB          1.4160     4.7100    -0.2710 ha         1 18B       0.192000
     57 HHD          1.4650    -4.0080    -0.5380 ha         1 18B       0.185000
     58 HMA         -2.2710     5.4280     0.3040 hc         1 18B       0.034367
     59 HMAA        -0.6770     5.7480    -0.3850 hc         1 18B       0.034367
     60 HMAB        -2.0520     5.4390    -1.4540 hc         1 18B       0.034367
     61 HMB          4.4690     4.9840     0.0690 hc         1 18B       0.046367
     62 HMBA         3.4540     4.2060     1.3010 hc         1 18B       0.046367
     63 HMBB         5.1320     3.6890     1.0850 hc         1 18B       0.046367
     64 HMC          6.0530    -1.2050     2.5640 hc         1 18B       0.042700
     65 HMCA         5.7880    -2.8750     3.0760 hc         1 18B       0.042700
     66 HMCB         6.4480    -2.5280     1.4640 hc         1 18B       0.042700
     67 HMD         -0.5920    -5.2580    -0.0250 hc         1 18B       0.029033
     68 HMDA        -2.3280    -5.1120    -0.3070 hc         1 18B       0.029033
     69 HMDB        -1.2050    -5.0660    -1.6770 hc         1 18B       0.029033
     70 CAD         -3.7170    -2.5600    -0.8230 c3         1 18B      -0.019200
     71 CAC          4.1630    -4.3270     0.2670 ce         1 18B      -0.148000
     72 OC           3.6260    -0.0270     2.6470 o          1 18B      -0.545000
     73 CBD         -4.5450    -2.6300     0.4810 c3         1 18B      -0.202400
     74 CHD          1.3090    -3.0200    -0.1150 cf         1 18B      -0.244600
     75 CMC          5.7270    -2.1930     2.2200 c3         1 18B      -0.027900
     76 O1D         -6.7780    -2.0770    -0.0970 o          1 18B      -0.739500
     77 O2D         -6.3100    -4.1690     0.1040 o          1 18B      -0.739500
@<TRIPOS>BOND
     1     1     6 1   
     2     1    20 1   
     3     1    36 1   
     4     2     8 1   
     5     2    21 1   
     6     2    37 1   
     7     3    21 2   
     8     4     9 1   
     9     4    22 1   
    10     4    38 1   
    11     5    10 2   
    12     5    23 1   
    13     6    11 2   
    14     6    31 1   
    15     7    29 1   
    16     8    13 1   
    17     8    32 2   
    18     9    14 1   
    19     9    72 2   
    20    10    15 1   
    21    10    74 1   
    22    11    16 1   
    23    11    24 1   
    24    12    29 1   
    25    13    17 2   
    26    13    34 1   
    27    14    18 2   
    28    14    75 1   
    29    15    19 2   
    30    15    35 1   
    31    16    20 2   
    32    16    33 1   
    33    17    21 1   
    34    17    25 1   
    35    18    22 1   
    36    18    71 1   
    37    19    23 1   
    38    19    70 1   
    39    20    32 1   
    40    22    74 2   
    41    23    31 2   
    42    24    26 1   
    43    24    39 1   
    44    24    40 1   
    45    25    27 1   
    46    25    41 1   
    47    25    42 1   
    48    26    29 1   
    49    26    46 1   
    50    26    47 1   
    51    27    48 1   
    52    27    49 1   
    53    27    50 1   
    54    28    51 1   
    55    28    52 1   
    56    28    71 2   
    57    30    73 1   
    58    30    76 1   
    59    30    77 1   
    60    31    55 1   
    61    32    56 1   
    62    33    58 1   
    63    33    59 1   
    64    33    60 1   
    65    34    61 1   
    66    34    62 1   
    67    34    63 1   
    68    35    67 1   
    69    35    68 1   
    70    35    69 1   
    71    43    71 1   
    72    44    70 1   
    73    45    70 1   
    74    53    73 1   
    75    54    73 1   
    76    57    74 1   
    77    64    75 1   
    78    65    75 1   
    79    66    75 1   
    80    70    73 1   
@<TRIPOS>SUBSTRUCTURE
     1 18B         1 TEMP              0 ****  ****    0 ROOT
