@<TRIPOS>MOLECULE
18C
  111   110     1     0     0
SMALL
No Charge or Current Charge


@<TRIPOS>ATOM
      1 O19        -14.4780     0.6940     2.0760 o          1 18C      -0.621100
      2 C19        -15.0850     0.1950     3.0120 c          1 18C       0.608100
      3 N2         -14.9200     0.6440     4.3010 ns         1 18C      -0.495900
      4 C2         -13.9670     1.6860     4.7390 c3         1 18C       0.041700
      5 C1         -14.4290     3.1150     4.3250 c3         1 18C       0.144600
      6 O1         -14.4140     3.2580     2.8980 oh         1 18C      -0.651000
      7 C3         -13.6900     1.5420     6.2670 c3         1 18C       0.197500
      8 C4         -12.7220     2.5730     6.8100 c2         1 18C      -0.277200
      9 C5         -11.4270     2.6720     6.4690 c2         1 18C      -0.173200
     10 C6         -10.4590     3.7040     7.0100 c3         1 18C      -0.048200
     11 C7          -9.3270     3.0610     7.8380 c3         1 18C      -0.072400
     12 C8          -8.3290     4.0940     8.4060 c3         1 18C      -0.074400
     13 C9          -7.1970     3.4480     9.2350 c3         1 18C      -0.074400
     14 C10         -6.1990     4.4810     9.8040 c3         1 18C      -0.074400
     15 C11         -5.0680     3.8350    10.6330 c3         1 18C      -0.074400
     16 C12         -4.0700     4.8670    11.2020 c3         1 18C      -0.074400
     17 C13         -2.9390     4.2220    12.0310 c3         1 18C      -0.074400
     18 C14         -1.9420     5.2540    12.6000 c3         1 18C      -0.074400
     19 C15         -0.8100     4.6090    13.4300 c3         1 18C      -0.074400
     20 C16          0.1870     5.6410    13.9990 c3         1 18C      -0.075400
     21 C17          1.3180     4.9960    14.8290 c3         1 18C      -0.075400
     22 C18          2.3140     6.0260    15.3970 c3         1 18C      -0.088100
     23 O3         -14.9130     1.6090     7.0090 oh         1 18C      -0.658000
     24 C20        -16.1150    -0.9240     2.8320 c3         1 18C      -0.156400
     25 C21        -15.4320    -2.2810     2.5420 c3         1 18C      -0.067400
     26 C22        -16.4410    -3.4360     2.3580 c3         1 18C      -0.076400
     27 C23        -15.7610    -4.7920     2.0680 c3         1 18C      -0.073400
     28 C24        -16.7700    -5.9470     1.8840 c3         1 18C      -0.075400
     29 C25        -16.0900    -7.3030     1.5940 c3         1 18C      -0.073400
     30 C26        -17.1000    -8.4570     1.4100 c3         1 18C      -0.074400
     31 C27        -16.4200    -9.8140     1.1200 c3         1 18C      -0.073400
     32 C28        -17.4290   -10.9680     0.9350 c3         1 18C      -0.074400
     33 C29        -16.7500   -12.3240     0.6450 c3         1 18C      -0.073400
     34 C30        -17.7590   -13.4780     0.4600 c3         1 18C      -0.074400
     35 C31        -17.0800   -14.8340     0.1690 c3         1 18C      -0.074400
     36 C32        -18.0890   -15.9880    -0.0160 c3         1 18C      -0.074400
     37 C33        -17.4100   -17.3450    -0.3070 c3         1 18C      -0.074400
     38 C34        -18.4200   -18.4990    -0.4930 c3         1 18C      -0.075400
     39 C35        -17.7410   -19.8550    -0.7840 c3         1 18C      -0.074400
     40 C36        -18.7470   -21.0060    -0.9700 c3         1 18C      -0.088100
     41 H361       -19.4210   -20.8020    -1.8110 hc         1 18C       0.031367
     42 H362       -19.3530   -21.1420    -0.0660 hc         1 18C       0.031367
     43 H363       -18.2200   -21.9460    -1.1730 hc         1 18C       0.031367
     44 H351       -17.1280   -19.7680    -1.6900 hc         1 18C       0.036700
     45 H352       -17.0610   -20.1060     0.0400 hc         1 18C       0.036700
     46 H341       -19.1000   -18.2530    -1.3180 hc         1 18C       0.036700
     47 H342       -19.0330   -18.5900     0.4120 hc         1 18C       0.036700
     48 H331       -16.7970   -17.2530    -1.2120 hc         1 18C       0.036700
     49 H332       -16.7300   -17.5910     0.5180 hc         1 18C       0.036700
     50 H321       -18.7700   -15.7420    -0.8410 hc         1 18C       0.036700
     51 H322       -18.7030   -16.0800     0.8890 hc         1 18C       0.036700
     52 H311       -16.4670   -14.7430    -0.7360 hc         1 18C       0.037200
     53 H312       -16.3990   -15.0800     0.9940 hc         1 18C       0.037200
     54 H301       -18.3720   -13.5690     1.3650 hc         1 18C       0.036700
     55 H302       -18.4400   -13.2320    -0.3650 hc         1 18C       0.036700
     56 H291       -16.0690   -12.5700     1.4700 hc         1 18C       0.037700
     57 H292       -16.1370   -12.2330    -0.2600 hc         1 18C       0.037700
     58 H281       -18.1100   -10.7220     0.1110 hc         1 18C       0.037200
     59 H282       -18.0420   -11.0590     1.8410 hc         1 18C       0.037200
     60 H271       -15.8070    -9.7230     0.2150 hc         1 18C       0.037700
     61 H272       -15.7390   -10.0590     1.9450 hc         1 18C       0.037700
     62 H261       -17.7130    -8.5480     2.3160 hc         1 18C       0.037200
     63 H262       -17.7810    -8.2120     0.5850 hc         1 18C       0.037200
     64 H251       -15.4770    -7.2120     0.6890 hc         1 18C       0.038200
     65 H252       -15.4100    -7.5480     2.4190 hc         1 18C       0.038200
     66 H241       -17.3830    -6.0370     2.7900 hc         1 18C       0.036700
     67 H242       -17.4510    -5.7020     1.0600 hc         1 18C       0.036700
     68 H231       -15.1480    -4.7020     1.1630 hc         1 18C       0.039200
     69 H232       -15.0800    -5.0370     2.8930 hc         1 18C       0.039200
     70 H221       -17.1220    -3.1910     1.5330 hc         1 18C       0.036700
     71 H222       -17.0540    -3.5270     3.2640 hc         1 18C       0.036700
     72 H211       -14.8180    -2.1910     1.6370 hc         1 18C       0.052200
     73 H212       -14.7510    -2.5250     3.3670 hc         1 18C       0.052200
     74 H201       -16.7610    -0.6710     1.9840 hc         1 18C       0.058200
     75 H202       -16.7180    -1.0260     3.7420 hc         1 18C       0.058200
     76 HN2        -15.4850     0.1950     5.0140 hn         1 18C       0.323500
     77 H2         -13.0110     1.4950     4.2330 h1         1 18C       0.084700
     78 H11        -15.4390     3.2960     4.7160 h1         1 18C       0.041200
     79 H12        -13.7620     3.8640     4.7730 h1         1 18C       0.041200
     80 HO1        -14.4330     2.3340     2.5290 ho         1 18C       0.454000
     81 H3         -13.2360     0.5500     6.4170 h1         1 18C       0.082700
     82 HO3        -15.2470     2.5270     6.9310 ho         1 18C       0.443000
     83 H4         -13.1470     3.2670     7.5380 ha         1 18C       0.172000
     84 H5         -10.9870     1.9820     5.7450 ha         1 18C       0.171000
     85 H61        -10.0220     4.2710     6.1790 hc         1 18C       0.048700
     86 H62        -10.9900     4.4320     7.6370 hc         1 18C       0.048700
     87 H71         -9.7690     2.4930     8.6660 hc         1 18C       0.042200
     88 H72         -8.7860     2.3430     7.2100 hc         1 18C       0.042200
     89 H81         -8.8710     4.8120     9.0350 hc         1 18C       0.038200
     90 H82         -7.8890     4.6630     7.5770 hc         1 18C       0.038200
     91 H91         -6.6550     2.7310     8.6070 hc         1 18C       0.038200
     92 H92         -7.6380     2.8790    10.0640 hc         1 18C       0.038200
     93 H101        -6.7420     5.1980    10.4320 hc         1 18C       0.037700
     94 H102        -5.7590     5.0490     8.9750 hc         1 18C       0.037700
     95 H111        -5.5090     3.2660    11.4610 hc         1 18C       0.037700
     96 H112        -4.5250     3.1180    10.0050 hc         1 18C       0.037700
     97 H121        -3.6300     5.4360    10.3740 hc         1 18C       0.037200
     98 H122        -4.6140     5.5850    11.8300 hc         1 18C       0.037200
     99 H131        -3.3800     3.6520    12.8600 hc         1 18C       0.037200
    100 H132        -2.3960     3.5050    11.4030 hc         1 18C       0.037200
    101 H141        -1.5010     5.8230    11.7720 hc         1 18C       0.037200
    102 H142        -2.4850     5.9710    13.2290 hc         1 18C       0.037200
    103 H151        -1.2510     4.0390    14.2580 hc         1 18C       0.036700
    104 H152        -0.2670     3.8920    12.8020 hc         1 18C       0.036700
    105 H161        -0.3560     6.3580    14.6270 hc         1 18C       0.036700
    106 H162         0.6280     6.2110    13.1710 hc         1 18C       0.036700
    107 H171         0.8810     4.4270    15.6590 hc         1 18C       0.036700
    108 H172         1.8650     4.2790    14.2030 hc         1 18C       0.036700
    109 H181         1.8020     6.7370    16.0560 hc         1 18C       0.031367
    110 H182         3.0960     5.5220    15.9760 hc         1 18C       0.031367
    111 H183         2.7950     6.5880    14.5870 hc         1 18C       0.031367
@<TRIPOS>BOND
     1     1     2 2   
     2     2     3 1   
     3     2    24 1   
     4     3     4 1   
     5     3    76 1   
     6     4     5 1   
     7     4     7 1   
     8     4    77 1   
     9     5     6 1   
    10     5    78 1   
    11     5    79 1   
    12     6    80 1   
    13     7     8 1   
    14     7    23 1   
    15     7    81 1   
    16     8     9 2   
    17     8    83 1   
    18     9    10 1   
    19     9    84 1   
    20    10    11 1   
    21    10    85 1   
    22    10    86 1   
    23    11    12 1   
    24    11    87 1   
    25    11    88 1   
    26    12    13 1   
    27    12    89 1   
    28    12    90 1   
    29    13    14 1   
    30    13    91 1   
    31    13    92 1   
    32    14    15 1   
    33    14    93 1   
    34    14    94 1   
    35    15    16 1   
    36    15    95 1   
    37    15    96 1   
    38    16    17 1   
    39    16    97 1   
    40    16    98 1   
    41    17    18 1   
    42    17    99 1   
    43    17   100 1   
    44    18    19 1   
    45    18   101 1   
    46    18   102 1   
    47    19    20 1   
    48    19   103 1   
    49    19   104 1   
    50    20    21 1   
    51    20   105 1   
    52    20   106 1   
    53    21    22 1   
    54    21   107 1   
    55    21   108 1   
    56    22   109 1   
    57    22   110 1   
    58    22   111 1   
    59    23    82 1   
    60    24    25 1   
    61    24    74 1   
    62    24    75 1   
    63    25    26 1   
    64    25    72 1   
    65    25    73 1   
    66    26    27 1   
    67    26    70 1   
    68    26    71 1   
    69    27    28 1   
    70    27    68 1   
    71    27    69 1   
    72    28    29 1   
    73    28    66 1   
    74    28    67 1   
    75    29    30 1   
    76    29    64 1   
    77    29    65 1   
    78    30    31 1   
    79    30    62 1   
    80    30    63 1   
    81    31    32 1   
    82    31    60 1   
    83    31    61 1   
    84    32    33 1   
    85    32    58 1   
    86    32    59 1   
    87    33    34 1   
    88    33    56 1   
    89    33    57 1   
    90    34    35 1   
    91    34    54 1   
    92    34    55 1   
    93    35    36 1   
    94    35    52 1   
    95    35    53 1   
    96    36    37 1   
    97    36    50 1   
    98    36    51 1   
    99    37    38 1   
   100    37    48 1   
   101    37    49 1   
   102    38    39 1   
   103    38    46 1   
   104    38    47 1   
   105    39    40 1   
   106    39    44 1   
   107    39    45 1   
   108    40    41 1   
   109    40    42 1   
   110    40    43 1   
@<TRIPOS>SUBSTRUCTURE
     1 18C         1 TEMP              0 ****  ****    0 ROOT
