@<TRIPOS>MOLECULE
18C
  111   110     1     0     0
SMALL
abcg2


@<TRIPOS>ATOM
      1 O19        -14.3010     0.0040     2.5030 o          1 18C      -0.621100
      2 C19        -14.8280    -0.3960     3.5340 c          1 18C       0.608100
      3 N2         -14.5910     0.1440     4.7420 ns         1 18C      -0.495900
      4 C2         -13.7610     1.3040     4.9720 c3         1 18C       0.041700
      5 C1         -14.6120     2.5740     5.0450 c3         1 18C       0.144600
      6 O1         -15.4480     2.7330     3.9270 oh         1 18C      -0.651000
      7 C3         -12.8990     1.0650     6.2230 c3         1 18C       0.197500
      8 C4         -11.9230     2.1760     6.4770 c2         1 18C      -0.277200
      9 C5         -10.6080     2.0300     6.3560 c2         1 18C      -0.173200
     10 C6          -9.5900     3.0920     6.6170 c3         1 18C      -0.048200
     11 C7          -8.7500     2.7850     7.8580 c3         1 18C      -0.072400
     12 C8          -7.6200     3.7840     8.0730 c3         1 18C      -0.074400
     13 C9          -6.8300     3.5210     9.3490 c3         1 18C      -0.074400
     14 C10         -5.6780     4.4960     9.5600 c3         1 18C      -0.074400
     15 C11         -4.9140     4.2470    10.8540 c3         1 18C      -0.074400
     16 C12         -3.7550     5.2130    11.0660 c3         1 18C      -0.074400
     17 C13         -3.0030     4.9720    12.3690 c3         1 18C      -0.074400
     18 C14         -1.8440     5.9370    12.5860 c3         1 18C      -0.074400
     19 C15         -1.1000     5.6990    13.8940 c3         1 18C      -0.074400
     20 C16          0.0570     6.6660    14.1140 c3         1 18C      -0.075400
     21 C17          0.7990     6.4320    15.4240 c3         1 18C      -0.075400
     22 C18          1.9500     7.4070    15.6320 c3         1 18C      -0.088100
     23 O3         -13.7010     0.7870     7.3580 oh         1 18C      -0.658000
     24 C20        -15.7890    -1.5650     3.5300 c3         1 18C      -0.156400
     25 C21        -15.2130    -2.7860     2.8190 c3         1 18C      -0.067400
     26 C22        -16.2040    -3.9420     2.7730 c3         1 18C      -0.076400
     27 C23        -15.6400    -5.1890     2.1030 c3         1 18C      -0.073400
     28 C24        -16.6370    -6.3400     2.0630 c3         1 18C      -0.075400
     29 C25        -16.0820    -7.6080     1.4250 c3         1 18C      -0.073400
     30 C26        -17.0900    -8.7490     1.4030 c3         1 18C      -0.074400
     31 C27        -16.5490   -10.0340     0.7870 c3         1 18C      -0.073400
     32 C28        -17.5710   -11.1640     0.7810 c3         1 18C      -0.074400
     33 C29        -17.0420   -12.4660     0.1920 c3         1 18C      -0.073400
     34 C30        -18.0760   -13.5850     0.1980 c3         1 18C      -0.074400
     35 C31        -17.5580   -14.8990    -0.3720 c3         1 18C      -0.074400
     36 C32        -18.6020   -16.0090    -0.3570 c3         1 18C      -0.074400
     37 C33        -18.0920   -17.3310    -0.9190 c3         1 18C      -0.074400
     38 C34        -19.1430   -18.4340    -0.9020 c3         1 18C      -0.075400
     39 C35        -18.6420   -19.7580    -1.4660 c3         1 18C      -0.074400
     40 C36        -19.7030   -20.8500    -1.4430 c3         1 18C      -0.088100
     41 H361       -20.5850   -20.5530    -2.0140 hc         1 18C       0.031367
     42 H362       -20.0300   -21.0640    -0.4230 hc         1 18C       0.031367
     43 H363       -19.3320   -21.7810    -1.8720 hc         1 18C       0.031367
     44 H351       -18.2980   -19.6070    -2.4930 hc         1 18C       0.036700
     45 H352       -17.7650   -20.0850    -0.8980 hc         1 18C       0.036700
     46 H341       -20.0210   -18.1080    -1.4710 hc         1 18C       0.036700
     47 H342       -19.4900   -18.5870     0.1260 hc         1 18C       0.036700
     48 H331       -17.7440   -17.1780    -1.9470 hc         1 18C       0.036700
     49 H332       -17.2150   -17.6540    -0.3480 hc         1 18C       0.036700
     50 H321       -19.4800   -15.6880    -0.9280 hc         1 18C       0.036700
     51 H322       -18.9490   -16.1630     0.6700 hc         1 18C       0.036700
     52 H311       -17.2130   -14.7390    -1.4000 hc         1 18C       0.037200
     53 H312       -16.6770   -15.2200     0.1960 hc         1 18C       0.037200
     54 H301       -18.4220   -13.7490     1.2250 hc         1 18C       0.036700
     55 H302       -18.9580   -13.2660    -0.3690 hc         1 18C       0.036700
     56 H291       -16.1570   -12.7850     0.7540 hc         1 18C       0.037700
     57 H292       -16.7020   -12.2900    -0.8350 hc         1 18C       0.037700
     58 H281       -18.4580   -10.8470     0.2210 hc         1 18C       0.037200
     59 H282       -17.9110   -11.3460     1.8060 hc         1 18C       0.037200
     60 H271       -16.2190    -9.8360    -0.2390 hc         1 18C       0.037700
     61 H272       -15.6570   -10.3520     1.3370 hc         1 18C       0.037700
     62 H261       -17.4220    -8.9550     2.4260 hc         1 18C       0.037200
     63 H262       -17.9840    -8.4320     0.8530 hc         1 18C       0.037200
     64 H251       -15.7550    -7.3880     0.4030 hc         1 18C       0.038200
     65 H252       -15.1850    -7.9250     1.9690 hc         1 18C       0.038200
     66 H241       -16.9650    -6.5670     3.0830 hc         1 18C       0.036700
     67 H242       -17.5340    -6.0240     1.5200 hc         1 18C       0.036700
     68 H231       -15.3230    -4.9440     1.0840 hc         1 18C       0.039200
     69 H232       -14.7360    -5.5080     2.6350 hc         1 18C       0.039200
     70 H221       -17.1090    -3.6220     2.2440 hc         1 18C       0.036700
     71 H222       -16.5190    -4.1920     3.7910 hc         1 18C       0.036700
     72 H211       -14.9200    -2.5110     1.8040 hc         1 18C       0.052200
     73 H212       -14.3000    -3.1090     3.3320 hc         1 18C       0.052200
     74 H201       -16.6990    -1.2410     3.0160 hc         1 18C       0.058200
     75 H202       -16.0860    -1.8330     4.5470 hc         1 18C       0.058200
     76 HN2        -15.0940    -0.2200     5.5360 hn         1 18C       0.323500
     77 H2         -13.0720     1.3940     4.1280 h1         1 18C       0.084700
     78 H11        -15.2710     2.5310     5.9150 h1         1 18C       0.041200
     79 H12        -13.9520     3.4390     5.1800 h1         1 18C       0.041200
     80 HO1        -14.9040     2.7220     3.1340 ho         1 18C       0.454000
     81 H3         -12.3300     0.1490     6.0330 h1         1 18C       0.082700
     82 HO3        -14.0310     1.6130     7.7260 ho         1 18C       0.443000
     83 H4         -12.3260     3.1420     6.7780 ha         1 18C       0.172000
     84 H5         -10.2160     1.0580     6.0640 ha         1 18C       0.171000
     85 H61         -8.9270     3.1750     5.7490 hc         1 18C       0.048700
     86 H62        -10.0780     4.0640     6.7340 hc         1 18C       0.048700
     87 H71         -9.4040     2.7750     8.7350 hc         1 18C       0.042200
     88 H72         -8.3320     1.7770     7.7770 hc         1 18C       0.042200
     89 H81         -8.0310     4.7990     8.1040 hc         1 18C       0.038200
     90 H82         -6.9450     3.7560     7.2110 hc         1 18C       0.038200
     91 H91         -6.4390     2.4970     9.3310 hc         1 18C       0.038200
     92 H92         -7.5070     3.5700    10.2090 hc         1 18C       0.038200
     93 H101        -6.0660     5.5210     9.5590 hc         1 18C       0.037700
     94 H102        -4.9900     4.4320     8.7100 hc         1 18C       0.037700
     95 H111        -5.6040     4.3190    11.7010 hc         1 18C       0.037700
     96 H112        -4.5340     3.2200    10.8600 hc         1 18C       0.037700
     97 H121        -3.0580     5.1350    10.2240 hc         1 18C       0.037200
     98 H122        -4.1320     6.2420    11.0510 hc         1 18C       0.037200
     99 H131        -3.7010     5.0510    13.2100 hc         1 18C       0.037200
    100 H132        -2.6260     3.9430    12.3860 hc         1 18C       0.037200
    101 H141        -1.1430     5.8550    11.7490 hc         1 18C       0.037200
    102 H142        -2.2210     6.9660    12.5660 hc         1 18C       0.037200
    103 H151        -1.8030     5.7790    14.7320 hc         1 18C       0.036700
    104 H152        -0.7230     4.6700    13.9150 hc         1 18C       0.036700
    105 H161        -0.3210     7.6940    14.0910 hc         1 18C       0.036700
    106 H162         0.7610     6.5850    13.2790 hc         1 18C       0.036700
    107 H171         0.0950     6.5120    16.2590 hc         1 18C       0.036700
    108 H172         1.1780     5.4050    15.4470 hc         1 18C       0.036700
    109 H181         1.5930     8.4380    15.6480 hc         1 18C       0.031367
    110 H182         2.4680     7.2230    16.5740 hc         1 18C       0.031367
    111 H183         2.6840     7.3250    14.8290 hc         1 18C       0.031367
@<TRIPOS>BOND
     1     1     2 2   
     2     2     3 1   
     3     2    24 1   
     4     3     4 1   
     5     3    76 1   
     6     4     5 1   
     7     4     7 1   
     8     4    77 1   
     9     5     6 1   
    10     5    78 1   
    11     5    79 1   
    12     6    80 1   
    13     7     8 1   
    14     7    23 1   
    15     7    81 1   
    16     8     9 2   
    17     8    83 1   
    18     9    10 1   
    19     9    84 1   
    20    10    11 1   
    21    10    85 1   
    22    10    86 1   
    23    11    12 1   
    24    11    87 1   
    25    11    88 1   
    26    12    13 1   
    27    12    89 1   
    28    12    90 1   
    29    13    14 1   
    30    13    91 1   
    31    13    92 1   
    32    14    15 1   
    33    14    93 1   
    34    14    94 1   
    35    15    16 1   
    36    15    95 1   
    37    15    96 1   
    38    16    17 1   
    39    16    97 1   
    40    16    98 1   
    41    17    18 1   
    42    17    99 1   
    43    17   100 1   
    44    18    19 1   
    45    18   101 1   
    46    18   102 1   
    47    19    20 1   
    48    19   103 1   
    49    19   104 1   
    50    20    21 1   
    51    20   105 1   
    52    20   106 1   
    53    21    22 1   
    54    21   107 1   
    55    21   108 1   
    56    22   109 1   
    57    22   110 1   
    58    22   111 1   
    59    23    82 1   
    60    24    25 1   
    61    24    74 1   
    62    24    75 1   
    63    25    26 1   
    64    25    72 1   
    65    25    73 1   
    66    26    27 1   
    67    26    70 1   
    68    26    71 1   
    69    27    28 1   
    70    27    68 1   
    71    27    69 1   
    72    28    29 1   
    73    28    66 1   
    74    28    67 1   
    75    29    30 1   
    76    29    64 1   
    77    29    65 1   
    78    30    31 1   
    79    30    62 1   
    80    30    63 1   
    81    31    32 1   
    82    31    60 1   
    83    31    61 1   
    84    32    33 1   
    85    32    58 1   
    86    32    59 1   
    87    33    34 1   
    88    33    56 1   
    89    33    57 1   
    90    34    35 1   
    91    34    54 1   
    92    34    55 1   
    93    35    36 1   
    94    35    52 1   
    95    35    53 1   
    96    36    37 1   
    97    36    50 1   
    98    36    51 1   
    99    37    38 1   
   100    37    48 1   
   101    37    49 1   
   102    38    39 1   
   103    38    46 1   
   104    38    47 1   
   105    39    40 1   
   106    39    44 1   
   107    39    45 1   
   108    40    41 1   
   109    40    42 1   
   110    40    43 1   
@<TRIPOS>SUBSTRUCTURE
     1 18C         1 TEMP              0 ****  ****    0 ROOT
