@<TRIPOS>MOLECULE
18D
   42    42     1     0     0
SMALL
abcg2


@<TRIPOS>ATOM
      1 C1          -1.9250     2.4990     0.8580 c          1 18D       0.690000
      2 C2          -1.3240     2.1450    -0.5370 c6         1 18D       0.264000
      3 C3           0.0830     2.6800    -0.7810 c6         1 18D      -0.113400
      4 C4           1.1770     1.9240    -0.0370 c6         1 18D       0.150300
      5 C5           1.0460     0.4300    -0.3060 c6         1 18D       0.082700
      6 C6          -0.3810    -0.0350     0.0190 c6         1 18D       0.166300
      7 C7          -0.6180    -1.4890    -0.3910 c3         1 18D       0.149300
      8 C8          -1.9920    -2.0110     0.0680 c3         1 18D       0.137300
      9 C9          -2.1420    -3.4870    -0.2650 c3         1 18D       0.123600
     10 C11          4.0100    -1.5020     1.0540 c3         1 18D      -0.164400
     11 N5           1.9940    -0.3210     0.4790 ns         1 18D      -0.493900
     12 O1          -1.2190     2.3480     1.8650 o          1 18D      -0.707000
     13 O3          -3.1120     2.8950     0.8130 o          1 18D      -0.707000
     14 O2          -2.1770     2.6330    -1.5030 oh         1 18D      -0.682000
     15 O4           2.4630     2.3220    -0.4630 oh         1 18D      -0.670000
     16 O6          -1.3330     0.7260    -0.6890 os         1 18D      -0.504000
     17 O7          -0.4470    -1.6670    -1.7780 oh         1 18D      -0.726000
     18 O8          -2.2070    -1.7670     1.4400 oh         1 18D      -0.617000
     19 O9          -3.4410    -3.9030     0.0860 oh         1 18D      -0.707000
     20 C22          4.9850    -2.5310     0.5110 c3         1 18D      -0.072100
     21 O10          3.3680    -0.9670    -1.2000 o          1 18D      -0.602100
     22 H2          -2.9790     2.8650    -0.9900 ho         1 18D       0.491000
     23 H31C         0.2890     2.6080    -1.8550 hc         1 18D       0.046700
     24 H32C         0.1180     3.7420    -0.5210 hc         1 18D       0.046700
     25 H4           1.0590     2.0910     1.0390 h1         1 18D       0.067700
     26 HA           2.6090     3.2250    -0.1640 ho         1 18D       0.432000
     27 H5           1.2590     0.2380    -1.3600 h1         1 18D       0.101700
     28 H6          -0.5310     0.0510     1.1010 h1         1 18D       0.076700
     29 H7           0.1560    -2.0990     0.0900 h1         1 18D       0.054700
     30 H8          -2.7760    -1.4540    -0.4570 h1         1 18D       0.108700
     31 HB          -1.0180    -1.0330    -2.2280 ho         1 18D       0.524000
     32 H91C        -1.9440    -3.6360    -1.3320 h1         1 18D       0.019700
     33 H92C        -1.3730    -4.0540     0.2840 h1         1 18D       0.019700
     34 HC          -1.5720    -2.2840     1.9480 ho         1 18D       0.419000
     35 H9          -3.5310    -4.8300    -0.1530 ho         1 18D       0.486000
     36 HD           1.8880    -0.2840     1.4820 hn         1 18D       0.302500
     37 H111         4.5580    -0.6750     1.5160 hc         1 18D       0.049200
     38 H112         3.4020    -1.9350     1.8520 hc         1 18D       0.049200
     39 H221         4.4650    -3.3750     0.0570 hc         1 18D       0.034700
     40 H222         5.6460    -2.1010    -0.2400 hc         1 18D       0.034700
     41 H223         5.6060    -2.9200     1.3170 hc         1 18D       0.034700
     42 C10          3.1030    -0.9100    -0.0090 c          1 18D       0.604100
@<TRIPOS>BOND
     1     1     2 1   
     2     1    12 1   
     3     1    13 1   
     4     2     3 1   
     5     2    14 1   
     6     2    16 1   
     7     3     4 1   
     8     3    23 1   
     9     3    24 1   
    10     4     5 1   
    11     4    15 1   
    12     4    25 1   
    13     5     6 1   
    14     5    11 1   
    15     5    27 1   
    16     6     7 1   
    17     6    16 1   
    18     6    28 1   
    19     7     8 1   
    20     7    17 1   
    21     7    29 1   
    22     8     9 1   
    23     8    18 1   
    24     8    30 1   
    25     9    19 1   
    26     9    32 1   
    27     9    33 1   
    28    10    20 1   
    29    10    37 1   
    30    10    38 1   
    31    10    42 1   
    32    11    36 1   
    33    11    42 1   
    34    14    22 1   
    35    15    26 1   
    36    17    31 1   
    37    18    34 1   
    38    19    35 1   
    39    20    39 1   
    40    20    40 1   
    41    20    41 1   
    42    21    42 2   
@<TRIPOS>SUBSTRUCTURE
     1 18D         1 TEMP              0 ****  ****    0 ROOT
