@<TRIPOS>MOLECULE
18D
   42    42     1     0     0
SMALL
No Charge or Current Charge


@<TRIPOS>ATOM
      1 C1          -1.9410     2.5820     0.9840 c          1 18D       0.690000
      2 C2          -1.4120     2.2120    -0.5020 c6         1 18D       0.264000
      3 C3          -0.0550     2.8990    -0.8090 c6         1 18D      -0.113400
      4 C4           1.1020     2.2020    -0.0590 c6         1 18D       0.150300
      5 C5           1.1550     0.6890    -0.4290 c6         1 18D       0.082700
      6 C6          -0.2390     0.0480    -0.1340 c6         1 18D       0.166300
      7 C7          -0.3720    -1.4230    -0.6630 c3         1 18D       0.149300
      8 C8          -1.4360    -2.2640     0.1110 c3         1 18D       0.137300
      9 C9          -1.6050    -3.7030    -0.4490 c3         1 18D       0.123600
     10 C11          4.1260    -1.4820     0.8100 c3         1 18D      -0.164400
     11 N5           2.2440     0.0120     0.3150 ns         1 18D      -0.493900
     12 O1          -1.8930     1.7240     1.8560 o          1 18D      -0.707000
     13 O3          -2.8670     3.3900     0.9950 o          1 18D      -0.707000
     14 O2          -2.3700     2.6970    -1.4510 oh         1 18D      -0.682000
     15 O4           2.3430     2.8510    -0.3810 oh         1 18D      -0.670000
     16 O6          -1.3000     0.7960    -0.8100 os         1 18D      -0.504000
     17 O7          -0.7180    -1.3700    -2.0600 oh         1 18D      -0.726000
     18 O8          -1.0680    -2.3830     1.4960 oh         1 18D      -0.617000
     19 O9          -2.4850    -4.4640     0.4010 oh         1 18D      -0.707000
     20 C22          3.7670    -2.9120     1.2650 c3         1 18D      -0.072100
     21 O10          3.0620    -1.3040    -1.3560 o          1 18D      -0.602100
     22 H2          -2.9980     3.1910    -0.8670 ho         1 18D       0.491000
     23 H31C         0.1410     2.8710    -1.8900 hc         1 18D       0.046700
     24 H32C        -0.1050     3.9590    -0.5280 hc         1 18D       0.046700
     25 H4           0.9130     2.2840     1.0230 h1         1 18D       0.067700
     26 HA           2.2600     3.7870    -0.0970 ho         1 18D       0.432000
     27 H5           1.3550     0.6050    -1.5070 h1         1 18D       0.101700
     28 H6          -0.4030     0.0480     0.9520 h1         1 18D       0.076700
     29 H7           0.5900    -1.9350    -0.5350 h1         1 18D       0.054700
     30 H8          -2.4050    -1.7520     0.0210 h1         1 18D       0.108700
     31 HB          -1.1630    -0.4860    -2.1350 ho         1 18D       0.524000
     32 H91C        -2.0150    -3.6520    -1.4660 h1         1 18D       0.019700
     33 H92C        -0.6210    -4.1890    -0.5090 h1         1 18D       0.019700
     34 HC          -1.5300    -3.2000     1.7940 ho         1 18D       0.419000
     35 H9          -2.6180    -5.3410    -0.0310 ho         1 18D       0.486000
     36 HD           2.3910     0.2710     1.2830 hn         1 18D       0.302500
     37 H111         5.1110    -1.5120     0.3300 hc         1 18D       0.049200
     38 H112         4.1650    -0.8410     1.6990 hc         1 18D       0.049200
     39 H221         2.7820    -2.9290     1.7480 hc         1 18D       0.034700
     40 H222         3.7430    -3.5990     0.4100 hc         1 18D       0.034700
     41 H223         4.5080    -3.2840     1.9830 hc         1 18D       0.034700
     42 C10          3.1000    -0.9390    -0.1900 c          1 18D       0.604100
@<TRIPOS>BOND
     1     1     2 1   
     2     1    12 1   
     3     1    13 1   
     4     2     3 1   
     5     2    14 1   
     6     2    16 1   
     7     3     4 1   
     8     3    23 1   
     9     3    24 1   
    10     4     5 1   
    11     4    15 1   
    12     4    25 1   
    13     5     6 1   
    14     5    11 1   
    15     5    27 1   
    16     6     7 1   
    17     6    16 1   
    18     6    28 1   
    19     7     8 1   
    20     7    17 1   
    21     7    29 1   
    22     8     9 1   
    23     8    18 1   
    24     8    30 1   
    25     9    19 1   
    26     9    32 1   
    27     9    33 1   
    28    10    20 1   
    29    10    37 1   
    30    10    38 1   
    31    10    42 1   
    32    11    36 1   
    33    11    42 1   
    34    14    22 1   
    35    15    26 1   
    36    17    31 1   
    37    18    34 1   
    38    19    35 1   
    39    20    39 1   
    40    20    40 1   
    41    20    41 1   
    42    21    42 2   
@<TRIPOS>SUBSTRUCTURE
     1 18D         1 TEMP              0 ****  ****    0 ROOT
