@<TRIPOS>MOLECULE
18E
   31    34     1     0     0
SMALL
bcc


@<TRIPOS>ATOM
      1 C1           4.6450    -0.1940    -0.0460 ca         1 18E       0.152100
      2 O1           5.9900    -0.1680    -0.0600 oh         1 18E      -0.491100
      3 C2           4.0370    -1.4680    -0.0170 ca         1 18E      -0.150000
      4 C3           2.6750    -1.5780    -0.0010 ca         1 18E      -0.083000
      5 C4           1.8530    -0.4320    -0.0140 ca         1 18E      -0.076000
      6 C5           2.4600     0.8500    -0.0430 ca         1 18E       0.034000
      7 C6           3.8670     0.9400    -0.0580 ca         1 18E      -0.229000
      8 C7           0.4390    -0.4670    -0.0020 ca         1 18E       0.003800
      9 C8          -0.3420     0.6890    -0.0170 cp         1 18E      -0.083000
     10 C9           0.2880     1.9540    -0.0450 ca         1 18E      -0.048000
     11 C10          1.6510     2.0220    -0.0570 ca         1 18E      -0.162000
     12 N11         -0.3810    -1.5650     0.0230 na         1 18E      -0.153300
     13 C12         -1.6800    -1.1630     0.0240 ca         1 18E       0.003800
     14 C13         -1.7070     0.2460    -0.0010 cp         1 18E      -0.185300
     15 C14         -2.8470    -1.9300     0.0430 ca         1 18E      -0.214600
     16 C15         -2.8210    -3.4240     0.0650 c3         1 18E      -0.037800
     17 C16         -4.0160    -1.1950     0.0360 ca         1 18E       0.429200
     18 N17         -4.0810     0.1450     0.0130 nb         1 18E      -0.681000
     19 C18         -2.9710     0.8260    -0.0050 ca         1 18E       0.563300
     20 CL18        -3.1150     2.5570    -0.0350 cl         1 18E      -0.172000
     21 HO1          6.3090     0.7420    -0.0860 ho         1 18E       0.429000
     22 H2           4.6600    -2.3530    -0.0070 ha         1 18E       0.148000
     23 H3           2.2360    -2.5680     0.0210 ha         1 18E       0.124000
     24 H6           4.3300     1.9210    -0.0810 ha         1 18E       0.135000
     25 H9          -0.2990     2.8610    -0.0570 ha         1 18E       0.146000
     26 H10          2.1410     2.9880    -0.0800 ha         1 18E       0.135000
     27 H15         -2.2850    -3.7990     0.9390 hc         1 18E       0.044700
     28 H15A        -3.8300    -3.8310     0.0930 hc         1 18E       0.044700
     29 H15B        -2.3220    -3.8250    -0.8190 hc         1 18E       0.044700
     30 H16         -4.9700    -1.7110     0.0500 h4         1 18E       0.024100
     31 HN11        -0.0790    -2.5260     0.0400 hn         1 18E       0.306700
@<TRIPOS>BOND
     1     1     2 1   
     2     1     3 ar  
     3     1     7 ar  
     4     2    21 1   
     5     3     4 ar  
     6     3    22 1   
     7     4     5 ar  
     8     4    23 1   
     9     5     6 ar  
    10     5     8 ar  
    11     6     7 ar  
    12     6    11 ar  
    13     7    24 1   
    14     8     9 ar  
    15     8    12 1   
    16     9    10 ar  
    17     9    14 1   
    18    10    11 ar  
    19    10    25 1   
    20    11    26 1   
    21    12    13 1   
    22    12    31 1   
    23    13    14 ar  
    24    13    15 ar  
    25    14    19 ar  
    26    15    16 1   
    27    15    17 ar  
    28    16    27 1   
    29    16    28 1   
    30    16    29 1   
    31    17    18 ar  
    32    17    30 1   
    33    18    19 ar  
    34    19    20 1   
@<TRIPOS>SUBSTRUCTURE
     1 18E         1 TEMP              0 ****  ****    0 ROOT
