@<TRIPOS>MOLECULE
18E
   31    34     1     0     0
SMALL
No Charge or Current Charge


@<TRIPOS>ATOM
      1 C1           4.7020    -0.1880    -0.0450 ca         1 18E       0.152100
      2 O1           6.0600    -0.0750    -0.0580 oh         1 18E      -0.530100
      3 C2           4.1110    -1.4610    -0.0190 ca         1 18E      -0.132000
      4 C3           2.7120    -1.5910    -0.0060 ca         1 18E      -0.065000
      5 C4           1.9050    -0.4370    -0.0190 ca         1 18E      -0.076000
      6 C5           2.4990     0.8490    -0.0460 ca         1 18E       0.034000
      7 C6           3.9010     0.9660    -0.0590 ca         1 18E      -0.211000
      8 C7           0.5040    -0.4990    -0.0070 ca         1 18E       0.003800
      9 C8          -0.3090     0.6350    -0.0200 cp         1 18E      -0.083000
     10 C9           0.2810     1.9170    -0.0470 ca         1 18E      -0.030000
     11 C10          1.6890     2.0120    -0.0590 ca         1 18E      -0.144000
     12 N11         -0.3680    -1.5990     0.0180 na         1 18E      -0.203600
     13 C12         -1.7110    -1.1980     0.0220 ca         1 18E       0.003800
     14 C13         -1.7060     0.1910    -0.0020 cp         1 18E      -0.120000
     15 C14         -2.8990    -1.9320     0.0430 ca         1 18E      -0.149300
     16 C15         -2.9060    -3.4540     0.0700 c3         1 18E      -0.037800
     17 C16         -4.0940    -1.1750     0.0400 ca         1 18E       0.363900
     18 N17         -4.1300     0.1870     0.0170 nb         1 18E      -0.681000
     19 C18         -2.9510     0.8630    -0.0040 ca         1 18E       0.498000
     20 Cl18        -3.0900     2.6160    -0.0330 cl         1 18E      -0.172000
     21 HO1          6.2900     0.8790    -0.0760 ho         1 18E       0.468000
     22 H2           4.7380    -2.3490    -0.0080 ha         1 18E       0.130000
     23 H3           2.2650    -2.5820     0.0150 ha         1 18E       0.106000
     24 H6           4.3610     1.9510    -0.0790 ha         1 18E       0.117000
     25 H9          -0.3260     2.8180    -0.0580 ha         1 18E       0.128000
     26 H10          2.1540     2.9950    -0.0800 ha         1 18E       0.117000
     27 H15         -2.3890    -3.8340     0.9590 hc         1 18E       0.044700
     28 H15A        -3.9280    -3.8530     0.0840 hc         1 18E       0.044700
     29 H15B        -2.4030    -3.8650    -0.8140 hc         1 18E       0.044700
     30 H16         -5.0620    -1.6750     0.0560 h4         1 18E       0.024100
     31 HN11        -0.0650    -2.5660     0.0320 hn         1 18E       0.357000
@<TRIPOS>BOND
     1     1     2 1   
     2     1     3 ar  
     3     1     7 ar  
     4     2    21 1   
     5     3     4 ar  
     6     3    22 1   
     7     4     5 ar  
     8     4    23 1   
     9     5     6 ar  
    10     5     8 ar  
    11     6     7 ar  
    12     6    11 ar  
    13     7    24 1   
    14     8     9 ar  
    15     8    12 1   
    16     9    10 ar  
    17     9    14 1   
    18    10    11 ar  
    19    10    25 1   
    20    11    26 1   
    21    12    13 1   
    22    12    31 1   
    23    13    14 ar  
    24    13    15 ar  
    25    14    19 ar  
    26    15    16 1   
    27    15    17 ar  
    28    16    27 1   
    29    16    28 1   
    30    16    29 1   
    31    17    18 ar  
    32    17    30 1   
    33    18    19 ar  
    34    19    20 1   
@<TRIPOS>SUBSTRUCTURE
     1 18E         1 TEMP              0 ****  ****    0 ROOT
