@<TRIPOS>MOLECULE
18F
   38    41     1     0     0
SMALL
bcc


@<TRIPOS>ATOM
      1 CAR         -0.6410    -2.0850    -0.7910 ca         1 18F      -0.108500
      2 CAS         -0.5600    -3.1990    -1.6130 ca         1 18F      -0.128000
      3 CAT          0.2100    -4.2930    -1.2330 ca         1 18F      -0.117000
      4 CAU          0.8990    -4.2630    -0.0290 ca         1 18F      -0.128000
      5 CAV          0.8190    -3.1440     0.7900 ca         1 18F      -0.108500
      6 CAQ          0.0470    -2.0490     0.4200 ca         1 18F      -0.117300
      7 CAP         -0.0460    -0.8370     1.3120 c3         1 18F       0.097600
      8 NAE          0.4290     0.3630     0.6510 na         1 18F      -0.144300
      9 CAD          1.7380     0.5780     0.2950 ca         1 18F      -0.075200
     10 CAI          2.9110    -0.1070     0.5930 ca         1 18F      -0.126000
     11 CAH          4.0810     0.4070     0.0620 ca         1 18F      -0.114000
     12 CAG          4.0800     1.5600    -0.7380 ca         1 18F      -0.153000
     13 CAF          2.9080     2.2330    -1.0320 ca         1 18F      -0.067000
     14 CAC          1.7180     1.7280    -0.5070 ca         1 18F       0.067400
     15 NAB          0.4320     2.1880    -0.6320 nc         1 18F      -0.564100
     16 CAA         -0.3010     1.3600     0.0630 cd         1 18F       0.464400
     17 CAJ         -1.7580     1.4900     0.1990 ca         1 18F      -0.113900
     18 CAK         -2.3760     1.5000     1.4490 ca         1 18F      -0.101500
     19 CAL         -3.7520     1.6430     1.5460 ca         1 18F      -0.132500
     20 CAM         -4.5210     1.7800     0.3980 ca         1 18F      -0.115000
     21 CAN         -3.9090     1.7840    -0.8490 ca         1 18F      -0.132500
     22 CAO         -2.5340     1.6400    -0.9490 ca         1 18F      -0.101500
     23 H1          -1.2500    -1.2420    -1.0960 ha         1 18F       0.132000
     24 H2          -1.1030    -3.2180    -2.5490 ha         1 18F       0.133000
     25 H3           0.2700    -5.1620    -1.8740 ha         1 18F       0.132000
     26 H4           1.5020    -5.1090     0.2740 ha         1 18F       0.133000
     27 H5           1.3550    -3.1280     1.7320 ha         1 18F       0.132000
     28 H6          -1.0770    -0.6770     1.6210 h1         1 18F       0.067700
     29 H7           0.5340    -0.9870     2.2240 h1         1 18F       0.067700
     30 H8           2.9240    -0.9920     1.2150 ha         1 18F       0.135000
     31 H9           5.0190    -0.0890     0.2720 ha         1 18F       0.128000
     32 H10          5.0190     1.9270    -1.1310 ha         1 18F       0.130000
     33 H11          2.9090     3.1200    -1.6510 ha         1 18F       0.145000
     34 H12         -1.7820     1.4150     2.3500 ha         1 18F       0.141000
     35 H13         -4.2240     1.6510     2.5200 ha         1 18F       0.134500
     36 H14         -5.5950     1.8880     0.4750 ha         1 18F       0.133000
     37 H15         -4.5040     1.8940    -1.7460 ha         1 18F       0.134500
     38 H16         -2.0580     1.6420    -1.9220 ha         1 18F       0.141000
@<TRIPOS>BOND
     1     1     2 ar  
     2     1     6 ar  
     3     1    23 1   
     4     2     3 ar  
     5     2    24 1   
     6     3     4 ar  
     7     3    25 1   
     8     4     5 ar  
     9     4    26 1   
    10     5     6 ar  
    11     5    27 1   
    12     6     7 1   
    13     7     8 1   
    14     7    28 1   
    15     7    29 1   
    16     8     9 1   
    17     8    16 1   
    18     9    10 ar  
    19     9    14 ar  
    20    10    11 ar  
    21    10    30 1   
    22    11    12 ar  
    23    11    31 1   
    24    12    13 ar  
    25    12    32 1   
    26    13    14 ar  
    27    13    33 1   
    28    14    15 1   
    29    15    16 2   
    30    16    17 1   
    31    17    18 ar  
    32    17    22 ar  
    33    18    19 ar  
    34    18    34 1   
    35    19    20 ar  
    36    19    35 1   
    37    20    21 ar  
    38    20    36 1   
    39    21    22 ar  
    40    21    37 1   
    41    22    38 1   
@<TRIPOS>SUBSTRUCTURE
     1 18F         1 TEMP              0 ****  ****    0 ROOT
