@<TRIPOS>MOLECULE
18F
   38    41     1     0     0
SMALL
No Charge or Current Charge


@<TRIPOS>ATOM
      1 CAR         -0.1670    -2.1660    -0.9450 ca         1 18F      -0.090500
      2 CAS          0.0900    -3.3050    -1.7260 ca         1 18F      -0.110000
      3 CAT          0.6690    -4.4440    -1.1410 ca         1 18F      -0.099000
      4 CAU          0.9880    -4.4430     0.2270 ca         1 18F      -0.110000
      5 CAV          0.7310    -3.3030     1.0090 ca         1 18F      -0.090500
      6 CAQ          0.1560    -2.1550     0.4280 ca         1 18F      -0.117300
      7 CAP         -0.1200    -0.9210     1.2840 c3         1 18F       0.126900
      8 NAE          0.3280     0.3470     0.6730 na         1 18F      -0.173600
      9 CAD          1.6030     0.5720     0.2230 ca         1 18F      -0.075200
     10 CAI          2.7860    -0.1280     0.5110 ca         1 18F      -0.108000
     11 CAH          3.9790     0.3120    -0.0960 ca         1 18F      -0.096000
     12 CAG          3.9630     1.4280    -0.9640 ca         1 18F      -0.135000
     13 CAF          2.7540     2.1090    -1.2280 ca         1 18F      -0.049000
     14 CAC          1.5780     1.6530    -0.6120 ca         1 18F       0.067400
     15 NAB          0.3050     2.1780    -0.7360 nc         1 18F      -0.564100
     16 CAA         -0.4290     1.3710     0.0610 cd         1 18F       0.464400
     17 CAJ         -1.8840     1.5860     0.2250 ca         1 18F      -0.113900
     18 CAK         -2.5100     1.3890     1.4760 ca         1 18F      -0.083500
     19 CAL         -3.8840     1.6390     1.6360 ca         1 18F      -0.114500
     20 CAM         -4.6450     2.1110     0.5560 ca         1 18F      -0.097000
     21 CAN         -4.0280     2.3470    -0.6830 ca         1 18F      -0.114500
     22 CAO         -2.6540     2.0980    -0.8440 ca         1 18F      -0.083500
     23 H1          -0.6180    -1.2910    -1.4100 ha         1 18F       0.114000
     24 H2          -0.1600    -3.3060    -2.7850 ha         1 18F       0.115000
     25 H3           0.8680    -5.3260    -1.7460 ha         1 18F       0.114000
     26 H4           1.4340    -5.3240     0.6810 ha         1 18F       0.115000
     27 H5           0.9820    -3.3140     2.0680 ha         1 18F       0.114000
     28 H6          -1.1990    -0.8770     1.4700 h1         1 18F       0.067700
     29 H7           0.3760    -1.0240     2.2580 h1         1 18F       0.067700
     30 H8           2.7880    -0.9860     1.1800 ha         1 18F       0.117000
     31 H9           4.9130    -0.2080     0.1030 ha         1 18F       0.110000
     32 H10          4.8860     1.7650    -1.4310 ha         1 18F       0.112000
     33 H11          2.7330     2.9680    -1.8920 ha         1 18F       0.127000
     34 H12         -1.9320     1.0580     2.3360 ha         1 18F       0.123000
     35 H13         -4.3560     1.4770     2.6030 ha         1 18F       0.116500
     36 H14         -5.7080     2.3070     0.6810 ha         1 18F       0.115000
     37 H15         -4.6120     2.7260    -1.5180 ha         1 18F       0.116500
     38 H16         -2.1900     2.2910    -1.8100 ha         1 18F       0.123000
@<TRIPOS>BOND
     1     1     2 ar  
     2     1     6 ar  
     3     1    23 1   
     4     2     3 ar  
     5     2    24 1   
     6     3     4 ar  
     7     3    25 1   
     8     4     5 ar  
     9     4    26 1   
    10     5     6 ar  
    11     5    27 1   
    12     6     7 1   
    13     7     8 1   
    14     7    28 1   
    15     7    29 1   
    16     8     9 1   
    17     8    16 1   
    18     9    10 ar  
    19     9    14 ar  
    20    10    11 ar  
    21    10    30 1   
    22    11    12 ar  
    23    11    31 1   
    24    12    13 ar  
    25    12    32 1   
    26    13    14 ar  
    27    13    33 1   
    28    14    15 1   
    29    15    16 2   
    30    16    17 1   
    31    17    18 ar  
    32    17    22 ar  
    33    18    19 ar  
    34    18    34 1   
    35    19    20 ar  
    36    19    35 1   
    37    20    21 ar  
    38    20    36 1   
    39    21    22 ar  
    40    21    37 1   
    41    22    38 1   
@<TRIPOS>SUBSTRUCTURE
     1 18F         1 TEMP              0 ****  ****    0 ROOT
