@<TRIPOS>MOLECULE
18G
   53    55     1     0     0
SMALL
abcg2


@<TRIPOS>ATOM
      1 N2           7.2270    -2.3790     0.0360 nv         1 18G      -1.058900
      2 C14          6.1100    -1.6260     0.0480 ca         1 18G       0.425900
      3 N1           6.2320    -0.3750     0.4880 nb         1 18G      -0.341000
      4 C13          5.1410     0.3810     0.4710 ca         1 18G       0.443900
      5 N            5.2520     1.6460     0.8920 nv         1 18G      -1.071900
      6 N3           4.9920    -2.2010    -0.4100 nb         1 18G      -0.294000
      7 C15          3.8970    -1.4510    -0.4250 ca         1 18G       0.220300
      8 C16          2.6380    -2.1000    -0.9020 c3         1 18G      -0.153400
      9 C12          3.8980    -0.1260     0.0070 ca         1 18G      -0.220000
     10 C11          2.7410     0.6910    -0.0010 cg         1 18G      -0.095000
     11 C10          1.7690     1.4070    -0.0010 c1         1 18G      -0.153100
     12 C8           0.5940     2.2740     0.0050 c3         1 18G       0.083700
     13 C9           0.6260     3.2130     1.2230 c3         1 18G      -0.079100
     14 C7          -0.6980     1.4790    -0.0280 ca         1 18G      -0.066300
     15 C1          -1.8560     2.0520    -0.5620 ca         1 18G       0.105100
     16 O           -1.7440     3.3040    -1.0580 os         1 18G      -0.348100
     17 C           -2.8800     3.9100    -1.6380 c3         1 18G       0.149900
     18 C6          -0.7710     0.2020     0.5100 ca         1 18G      -0.154000
     19 C4          -1.9570    -0.5260     0.5190 ca         1 18G       0.118100
     20 O1          -2.0720    -1.7600     1.0570 os         1 18G      -0.336100
     21 C5          -0.9320    -2.3550     1.6360 c3         1 18G       0.147900
     22 C3          -3.1110     0.0360    -0.0350 cp         1 18G      -0.033000
     23 C2          -3.0400     1.3240    -0.5640 ca         1 18G      -0.154000
     24 C17         -4.4060    -0.6800    -0.0570 cp         1 18G      -0.024000
     25 C22         -5.5540    -0.0480     0.4210 ca         1 18G      -0.091500
     26 C21         -6.7890    -0.6800     0.3730 ca         1 18G      -0.115000
     27 C20         -6.8960    -1.9570    -0.1580 ca         1 18G      -0.108000
     28 C19         -5.7600    -2.5950    -0.6410 ca         1 18G      -0.115000
     29 C18         -4.5260    -1.9650    -0.5890 ca         1 18G      -0.091500
     30 H1           8.0330    -2.0620     0.5460 hn         1 18G       0.494000
     31 H2           7.1370    -3.3700    -0.1080 hn         1 18G       0.494000
     32 H3           6.1130     1.9560     1.3070 hn         1 18G       0.499000
     33 H4           4.4370     2.2210     1.0170 hn         1 18G       0.499000
     34 H5           2.0820    -2.5010    -0.0510 hc         1 18G       0.056367
     35 H6           1.9820    -1.3960    -1.4110 hc         1 18G       0.056367
     36 H7           2.8620    -2.9310    -1.5680 hc         1 18G       0.056367
     37 H8           0.6400     2.8950    -0.8940 hc         1 18G       0.081700
     38 H9           1.5320     3.8190     1.2170 hc         1 18G       0.039700
     39 H10         -0.2330     3.8820     1.2050 hc         1 18G       0.039700
     40 H11          0.6000     2.6410     2.1500 hc         1 18G       0.039700
     41 H12         -3.2460     3.3490    -2.5020 h1         1 18G       0.039700
     42 H13         -3.6970     4.0230    -0.9200 h1         1 18G       0.039700
     43 H14         -2.5680     4.8970    -1.9700 h1         1 18G       0.039700
     44 H15          0.1330    -0.2210     0.9290 ha         1 18G       0.129000
     45 H16         -1.2440    -3.3300     2.0020 h1         1 18G       0.039367
     46 H17         -0.1280    -2.4980     0.9090 h1         1 18G       0.039367
     47 H18         -0.5440    -1.7720     2.4760 h1         1 18G       0.039367
     48 H19         -3.9400     1.7400    -0.9960 ha         1 18G       0.123000
     49 H20         -5.4790     0.9470     0.8450 ha         1 18G       0.115000
     50 H21         -7.6670    -0.1730     0.7530 ha         1 18G       0.110500
     51 H22         -7.8580    -2.4520    -0.2010 ha         1 18G       0.110000
     52 H23         -5.8360    -3.5880    -1.0670 ha         1 18G       0.110500
     53 H24         -3.6540    -2.4690    -0.9860 ha         1 18G       0.115000
@<TRIPOS>BOND
     1     1     2 1   
     2     1    30 1   
     3     1    31 1   
     4     2     3 ar  
     5     2     6 ar  
     6     3     4 ar  
     7     4     5 1   
     8     4     9 ar  
     9     5    32 1   
    10     5    33 1   
    11     6     7 ar  
    12     7     8 1   
    13     7     9 ar  
    14     8    34 1   
    15     8    35 1   
    16     8    36 1   
    17     9    10 1   
    18    10    11 3   
    19    11    12 1   
    20    12    13 1   
    21    12    14 1   
    22    12    37 1   
    23    13    38 1   
    24    13    39 1   
    25    13    40 1   
    26    14    15 ar  
    27    14    18 ar  
    28    15    16 1   
    29    15    23 ar  
    30    16    17 1   
    31    17    41 1   
    32    17    42 1   
    33    17    43 1   
    34    18    19 ar  
    35    18    44 1   
    36    19    20 1   
    37    19    22 ar  
    38    20    21 1   
    39    21    45 1   
    40    21    46 1   
    41    21    47 1   
    42    22    23 ar  
    43    22    24 1   
    44    23    48 1   
    45    24    25 ar  
    46    24    29 ar  
    47    25    26 ar  
    48    25    49 1   
    49    26    27 ar  
    50    26    50 1   
    51    27    28 ar  
    52    27    51 1   
    53    28    29 ar  
    54    28    52 1   
    55    29    53 1   
@<TRIPOS>SUBSTRUCTURE
     1 18G         1 TEMP              0 ****  ****    0 ROOT
