@<TRIPOS>MOLECULE
18G
   53    55     1     0     0
SMALL
No Charge or Current Charge


@<TRIPOS>ATOM
      1 N2           6.8720    -2.4210    -1.0250 nv         1 18G      -1.058900
      2 C14          5.8410    -1.6020    -0.7240 ca         1 18G       0.425900
      3 N1           6.0710    -0.2970    -0.8780 nb         1 18G      -0.341000
      4 C13          5.0480     0.5070    -0.5790 ca         1 18G       0.443900
      5 N            5.3090     1.8300    -0.7440 nv         1 18G      -1.071900
      6 N3           4.7180    -2.1970    -0.3060 nb         1 18G      -0.294000
      7 C15          3.6870    -1.3820    -0.0030 ca         1 18G       0.220300
      8 C16          2.4100    -2.0630     0.4770 c3         1 18G      -0.153400
      9 C12          3.8050     0.0210    -0.1250 ca         1 18G      -0.220000
     10 C11          2.7070     0.8950     0.2020 cg         1 18G      -0.095000
     11 C10          1.7630     1.6040     0.4840 c1         1 18G      -0.153100
     12 C8           0.5750     2.3980     0.8380 c3         1 18G       0.083700
     13 C9           0.6200     2.8410     2.3170 c3         1 18G      -0.079100
     14 C7          -0.7020     1.5990     0.5220 ca         1 18G      -0.066300
     15 C1          -1.6860     2.0970    -0.3660 ca         1 18G       0.105100
     16 O           -1.4930     3.3340    -0.9550 os         1 18G      -0.348100
     17 C           -2.4390     3.9200    -1.8680 c3         1 18G       0.149900
     18 C6          -0.9020     0.3410     1.1340 ca         1 18G      -0.154000
     19 C4          -2.0550    -0.4230     0.8610 ca         1 18G       0.118100
     20 O1          -2.2830    -1.6460     1.4660 os         1 18G      -0.336100
     21 C5          -1.3350    -2.2580     2.3580 c3         1 18G       0.147900
     22 C3          -3.0460     0.0610    -0.0350 cp         1 18G      -0.033000
     23 C2          -2.8420     1.3280    -0.6320 ca         1 18G      -0.154000
     24 C17         -4.2850    -0.7150    -0.3610 cp         1 18G      -0.024000
     25 C22         -5.5560    -0.0880    -0.3300 ca         1 18G      -0.091500
     26 C21         -6.7250    -0.8010    -0.6490 ca         1 18G      -0.115000
     27 C20         -6.6450    -2.1550    -1.0120 ca         1 18G      -0.108000
     28 C19         -5.3950    -2.7940    -1.0590 ca         1 18G      -0.115000
     29 C18         -4.2280    -2.0800    -0.7390 ca         1 18G      -0.091500
     30 H1           7.7970    -2.0090    -1.1200 hn         1 18G       0.494000
     31 H2           6.8310    -3.3860    -0.7070 hn         1 18G       0.494000
     32 H3           6.2800     2.1180    -0.8250 hn         1 18G       0.499000
     33 H4           4.6650     2.4980    -0.3280 hn         1 18G       0.499000
     34 H5           2.1620    -1.7500     1.4980 hc         1 18G       0.056367
     35 H6           1.5620    -1.8050    -0.1690 hc         1 18G       0.056367
     36 H7           2.5030    -3.1550     0.4790 hc         1 18G       0.056367
     37 H8           0.6230     3.3100     0.2330 hc         1 18G       0.081700
     38 H9           1.5080     3.4540     2.5120 hc         1 18G       0.039700
     39 H10         -0.2650     3.4410     2.5600 hc         1 18G       0.039700
     40 H11          0.6440     1.9780     2.9930 hc         1 18G       0.039700
     41 H12         -2.5750     3.2840    -2.7510 h1         1 18G       0.039700
     42 H13         -3.4120     4.0640    -1.3810 h1         1 18G       0.039700
     43 H14         -2.0820     4.9000    -2.2070 h1         1 18G       0.039700
     44 H15         -0.1470    -0.0290     1.8200 ha         1 18G       0.129000
     45 H16         -1.7140    -3.2250     2.7090 h1         1 18G       0.039367
     46 H17         -0.3780    -2.4320     1.8500 h1         1 18G       0.039367
     47 H18         -1.1590    -1.6230     3.2360 h1         1 18G       0.039367
     48 H19         -3.6000     1.6930    -1.3180 ha         1 18G       0.123000
     49 H20         -5.6340     0.9590    -0.0460 ha         1 18G       0.115000
     50 H21         -7.6920    -0.3030    -0.6140 ha         1 18G       0.110500
     51 H22         -7.5490    -2.7070    -1.2600 ha         1 18G       0.110000
     52 H23         -5.3300    -3.8410    -1.3450 ha         1 18G       0.110500
     53 H24         -3.2660    -2.5850    -0.7920 ha         1 18G       0.115000
@<TRIPOS>BOND
     1     1     2 1   
     2     1    30 1   
     3     1    31 1   
     4     2     3 ar  
     5     2     6 ar  
     6     3     4 ar  
     7     4     5 1   
     8     4     9 ar  
     9     5    32 1   
    10     5    33 1   
    11     6     7 ar  
    12     7     8 1   
    13     7     9 ar  
    14     8    34 1   
    15     8    35 1   
    16     8    36 1   
    17     9    10 1   
    18    10    11 3   
    19    11    12 1   
    20    12    13 1   
    21    12    14 1   
    22    12    37 1   
    23    13    38 1   
    24    13    39 1   
    25    13    40 1   
    26    14    15 ar  
    27    14    18 ar  
    28    15    16 1   
    29    15    23 ar  
    30    16    17 1   
    31    17    41 1   
    32    17    42 1   
    33    17    43 1   
    34    18    19 ar  
    35    18    44 1   
    36    19    20 1   
    37    19    22 ar  
    38    20    21 1   
    39    21    45 1   
    40    21    46 1   
    41    21    47 1   
    42    22    23 ar  
    43    22    24 1   
    44    23    48 1   
    45    24    25 ar  
    46    24    29 ar  
    47    25    26 ar  
    48    25    49 1   
    49    26    27 ar  
    50    26    50 1   
    51    27    28 ar  
    52    27    51 1   
    53    28    29 ar  
    54    28    52 1   
    55    29    53 1   
@<TRIPOS>SUBSTRUCTURE
     1 18G         1 TEMP              0 ****  ****    0 ROOT
