@<TRIPOS>MOLECULE
18H
   49    51     1     0     0
SMALL
No Charge or Current Charge


@<TRIPOS>ATOM
      1 CAB          3.0500    -1.1590     1.7620 c3         1 18H      -0.153400
      2 C6           3.9580    -0.9140     0.5610 ca         1 18H       0.222300
      3 N1           5.0360    -1.7180     0.4550 nb         1 18H      -0.293000
      4 C2           5.8360    -1.5020    -0.5950 ca         1 18H       0.427900
      5 NAD          6.9150    -2.3070    -0.6960 nv         1 18H      -1.062900
      6 N3           5.7000    -0.5900    -1.5600 nb         1 18H      -0.342000
      7 C4           4.6310     0.2030    -1.4550 ca         1 18H       0.443900
      8 NAE          4.5200     1.1240    -2.4490 nv         1 18H      -1.073900
      9 C5           3.7040     0.0950    -0.3980 ca         1 18H      -0.223000
     10 CAF          2.5580     0.9630    -0.2880 cg         1 18H      -0.093000
     11 CAG          1.5880     1.6840    -0.1770 c1         1 18H      -0.155100
     12 CBA          0.3970     2.5270     0.0040 c3         1 18H       0.086700
     13 CAC          0.5870     3.5190     1.1730 c3         1 18H      -0.079100
     14 CAZ         -0.8480     1.6420     0.1930 ca         1 18H      -0.105300
     15 CAY         -1.9040     1.6350    -0.7500 ca         1 18H       0.142100
     16 CAO         -3.0320     0.8100    -0.5350 ca         1 18H      -0.189000
     17 OAR         -1.8090     2.4480    -1.8670 os         1 18H      -0.347100
     18 CAA         -2.8260     2.4970    -2.8840 c3         1 18H       0.148900
     19 CAN         -0.9440     0.8100     1.3300 ca         1 18H      -0.073000
     20 CAM         -2.0680    -0.0040     1.5320 ca         1 18H      -0.138000
     21 CAW         -3.1360    -0.0210     0.6060 cp         1 18H       0.004000
     22 CAV         -4.3380    -0.8880     0.8260 cp         1 18H      -0.038000
     23 CAK         -4.8500    -1.1160     2.1290 ca         1 18H      -0.098500
     24 CAI         -5.9810    -1.9270     2.3340 ca         1 18H      -0.111500
     25 CAH         -6.6230    -2.5280     1.2400 ca         1 18H      -0.106000
     26 CAJ         -6.1350    -2.3160    -0.0590 ca         1 18H      -0.111500
     27 CAL         -5.0060    -1.5050    -0.2630 ca         1 18H      -0.098500
     28 H1           2.0320    -1.4070     1.4400 hc         1 18H       0.057367
     29 H2           3.4100    -1.9870     2.3860 hc         1 18H       0.057367
     30 H3           2.9960    -0.2660     2.3980 hc         1 18H       0.057367
     31 H4           6.9360    -3.1520    -0.1300 hn         1 18H       0.495500
     32 H5           7.4080    -2.3400    -1.5860 hn         1 18H       0.495500
     33 H6           5.3400     1.3110    -3.0200 hn         1 18H       0.500000
     34 H7           3.8690     1.8930    -2.3140 hn         1 18H       0.500000
     35 H8           0.3060     3.1330    -0.9050 hc         1 18H       0.078700
     36 H9           1.4370     4.1860     0.9790 hc         1 18H       0.041033
     37 H10         -0.3090     4.1390     1.2950 hc         1 18H       0.041033
     38 H11          0.7740     2.9970     2.1180 hc         1 18H       0.041033
     39 H12         -3.8540     0.8130    -1.2420 ha         1 18H       0.119000
     40 H13         -2.9640     1.5110    -3.3460 h1         1 18H       0.041033
     41 H14         -3.7840     2.8280    -2.4630 h1         1 18H       0.041033
     42 H15         -2.5400     3.2040    -3.6720 h1         1 18H       0.041033
     43 H16         -0.1390     0.7870     2.0610 ha         1 18H       0.124000
     44 H17         -2.1030    -0.6410     2.4120 ha         1 18H       0.118000
     45 H18         -4.3760    -0.6500     2.9890 ha         1 18H       0.114000
     46 H19         -6.3590    -2.0860     3.3410 ha         1 18H       0.112500
     47 H20         -7.4970    -3.1560     1.3990 ha         1 18H       0.113000
     48 H21         -6.6300    -2.7830    -0.9080 ha         1 18H       0.112500
     49 H22         -4.6360    -1.3650    -1.2760 ha         1 18H       0.114000
@<TRIPOS>BOND
     1     1     2 1   
     2     1    28 1   
     3     1    29 1   
     4     1    30 1   
     5     2     3 ar  
     6     2     9 ar  
     7     3     4 ar  
     8     4     5 1   
     9     4     6 ar  
    10     5    31 1   
    11     5    32 1   
    12     6     7 ar  
    13     7     8 1   
    14     7     9 ar  
    15     8    33 1   
    16     8    34 1   
    17     9    10 1   
    18    10    11 3   
    19    11    12 1   
    20    12    13 1   
    21    12    14 1   
    22    12    35 1   
    23    13    36 1   
    24    13    37 1   
    25    13    38 1   
    26    14    15 ar  
    27    14    19 ar  
    28    15    16 ar  
    29    15    17 1   
    30    16    21 ar  
    31    16    39 1   
    32    17    18 1   
    33    18    40 1   
    34    18    41 1   
    35    18    42 1   
    36    19    20 ar  
    37    19    43 1   
    38    20    21 ar  
    39    20    44 1   
    40    21    22 1   
    41    22    23 ar  
    42    22    27 ar  
    43    23    24 ar  
    44    23    45 1   
    45    24    25 ar  
    46    24    46 1   
    47    25    26 ar  
    48    25    47 1   
    49    26    27 ar  
    50    26    48 1   
    51    27    49 1   
@<TRIPOS>SUBSTRUCTURE
     1 18H         1 TEMP              0 ****  ****    0 ROOT
