@<TRIPOS>MOLECULE
18H
   49    51     1     0     0
SMALL
bcc


@<TRIPOS>ATOM
      1 CAB          5.1600     1.5460     1.2050 c3         1 18H      -0.153400
      2 C6           5.0160     0.2220     0.5260 ca         1 18H       0.550600
      3 N1           6.0850    -0.5620     0.4820 nb         1 18H      -0.819000
      4 C2           5.9420    -1.7420    -0.1350 ca         1 18H       0.953900
      5 NAD          7.0380    -2.5190    -0.2120 nv         1 18H      -0.952500
      6 N3           4.8300    -2.2080    -0.7000 nb         1 18H      -0.868000
      7 C4           3.7570    -1.4270    -0.6570 ca         1 18H       0.772200
      8 NAE          2.6250    -1.8930    -1.1990 nv         1 18H      -0.963500
      9 C5           3.7970    -0.1500    -0.0390 ca         1 18H      -0.353600
     10 CAF          2.6470     0.6740    -0.0050 cg         1 18H      -0.093000
     11 CAG          1.6420     1.3430    -0.0010 c1         1 18H      -0.155100
     12 CBA          0.4360     2.1660     0.0230 c3         1 18H       0.086700
     13 CAC          0.4720     3.1230     1.2260 c3         1 18H      -0.079100
     14 CAZ         -0.8250     1.3240     0.0380 ca         1 18H      -0.105300
     15 CAY         -2.0300     1.8590    -0.4470 ca         1 18H       0.142100
     16 CAO         -3.2010     1.1100    -0.4030 ca         1 18H      -0.207000
     17 OAR         -1.9710     3.1140    -0.9330 os         1 18H      -0.323900
     18 CAA         -3.1370     3.6970    -1.4780 c3         1 18H       0.125700
     19 CAN         -0.8500     0.0410     0.5620 ca         1 18H      -0.091000
     20 CAM         -2.0160    -0.7090     0.6150 ca         1 18H      -0.156000
     21 CAW         -3.2070    -0.1810     0.1300 cp         1 18H       0.004000
     22 CAV         -4.4590    -0.9630     0.1770 cp         1 18H      -0.038000
     23 CAK         -4.7430    -1.7840     1.2700 ca         1 18H      -0.116500
     24 CAI         -5.9160    -2.5220     1.3190 ca         1 18H      -0.129500
     25 CAH         -6.8300    -2.4540     0.2760 ca         1 18H      -0.124000
     26 CAJ         -6.5600    -1.6410    -0.8170 ca         1 18H      -0.129500
     27 CAL         -5.3860    -0.9020    -0.8660 ca         1 18H      -0.116500
     28 H1           4.4100     1.6690     1.9870 hc         1 18H       0.057367
     29 H2           6.1490     1.6450     1.6460 hc         1 18H       0.057367
     30 H3           5.0110     2.3610     0.4950 hc         1 18H       0.057367
     31 H4           7.8380    -2.2880     0.3500 hn         1 18H       0.440300
     32 H5           6.9440    -3.4730    -0.5140 hn         1 18H       0.440300
     33 H6           2.6420    -2.7530    -1.7200 hn         1 18H       0.444800
     34 H7           1.8160    -1.3030    -1.2930 hn         1 18H       0.444800
     35 H8           0.4370     2.7760    -0.8860 hc         1 18H       0.078700
     36 H9           1.3590     3.7550     1.1890 hc         1 18H       0.041033
     37 H10         -0.4060     3.7670     1.2230 hc         1 18H       0.041033
     38 H11          0.4870     2.5630     2.1610 hc         1 18H       0.041033
     39 H12         -4.1320     1.5310    -0.7570 ha         1 18H       0.137000
     40 H13         -3.5250     3.1200    -2.3220 h1         1 18H       0.041033
     41 H14         -3.9280     3.8060    -0.7320 h1         1 18H       0.041033
     42 H15         -2.8510     4.6850    -1.8300 h1         1 18H       0.041033
     43 H16          0.0710    -0.3930     0.9320 ha         1 18H       0.142000
     44 H17         -1.9850    -1.7140     1.0150 ha         1 18H       0.136000
     45 H18         -4.0500    -1.8310     2.1010 ha         1 18H       0.132000
     46 H19         -6.1200    -3.1470     2.1790 ha         1 18H       0.130500
     47 H20         -7.7450    -3.0300     0.3130 ha         1 18H       0.131000
     48 H21         -7.2620    -1.5850    -1.6390 ha         1 18H       0.130500
     49 H22         -5.1810    -0.2890    -1.7350 ha         1 18H       0.132000
@<TRIPOS>BOND
     1     1     2 1   
     2     1    28 1   
     3     1    29 1   
     4     1    30 1   
     5     2     3 ar  
     6     2     9 ar  
     7     3     4 ar  
     8     4     5 1   
     9     4     6 ar  
    10     5    31 1   
    11     5    32 1   
    12     6     7 ar  
    13     7     8 1   
    14     7     9 ar  
    15     8    33 1   
    16     8    34 1   
    17     9    10 1   
    18    10    11 3   
    19    11    12 1   
    20    12    13 1   
    21    12    14 1   
    22    12    35 1   
    23    13    36 1   
    24    13    37 1   
    25    13    38 1   
    26    14    15 ar  
    27    14    19 ar  
    28    15    16 ar  
    29    15    17 1   
    30    16    21 ar  
    31    16    39 1   
    32    17    18 1   
    33    18    40 1   
    34    18    41 1   
    35    18    42 1   
    36    19    20 ar  
    37    19    43 1   
    38    20    21 ar  
    39    20    44 1   
    40    21    22 1   
    41    22    23 ar  
    42    22    27 ar  
    43    23    24 ar  
    44    23    45 1   
    45    24    25 ar  
    46    24    46 1   
    47    25    26 ar  
    48    25    47 1   
    49    26    27 ar  
    50    26    48 1   
    51    27    49 1   
@<TRIPOS>SUBSTRUCTURE
     1 18H         1 TEMP              0 ****  ****    0 ROOT
