@<TRIPOS>MOLECULE
18I
   59    63     1     0     0
SMALL
bcc


@<TRIPOS>ATOM
      1 C1          -6.9600    -1.4960     0.5110 ca         1 18I      -0.291800
      2 F1           7.8690     0.4030    -1.5580 f          1 18I      -0.142900
      3 N1          -8.0120    -3.3130    -0.6360 nb         1 18I      -0.682000
      4 O1          -1.1270    -1.2360     1.8890 o          1 18I      -0.583100
      5 C2          -8.0380    -2.3170     0.2440 ca         1 18I       0.422700
      6 F2           0.9420    -3.0920     1.2460 f          1 18I      -0.119900
      7 C3          -6.8670    -3.5030    -1.2800 ca         1 18I       0.422700
      8 N3          -1.1980     0.0120     0.0110 ns         1 18I      -0.549900
      9 C4          -5.7190    -2.7470    -1.0970 ca         1 18I      -0.291800
     10 N4          -1.1880     4.4390     0.8790 na         1 18I      -0.167400
     11 C5          -5.7600    -1.7040    -0.1710 ca         1 18I       0.113600
     12 C6          -3.4430    -0.8470    -0.3980 c          1 18I       0.661100
     13 C7          -2.5950     0.3210     0.1050 c3         1 18I       0.037700
     14 C9           0.9210    -0.7930     0.7570 ca         1 18I      -0.193600
     15 C10          1.6660     0.3390     0.4290 ca         1 18I      -0.079000
     16 C11          3.0440     0.2840     0.3250 ca         1 18I      -0.144000
     17 C12          3.7250    -0.9140     0.5390 cp         1 18I       0.009000
     18 C13          5.1960    -0.9820     0.4350 cp         1 18I      -0.017000
     19 C14          5.9360    -1.7880     1.3000 ca         1 18I      -0.129000
     20 C15          7.3180    -1.8440     1.1980 ca         1 18I      -0.102000
     21 C16          7.9890    -1.1040     0.2350 ca         1 18I      -0.163000
     22 C17          7.2390    -0.3120    -0.6130 ca         1 18I       0.134900
     23 C18          5.8640    -0.2340    -0.5350 ca         1 18I      -0.158000
     24 C19          2.9900    -2.0550     0.8590 ca         1 18I      -0.176000
     25 C20          1.6180    -1.9740     0.9680 ca         1 18I       0.192900
     26 C21         -2.9190     1.5950    -0.7010 c3         1 18I      -0.007200
     27 C22         -2.0510     2.7390    -0.2950 cc         1 18I      -0.153400
     28 C23         -2.2480     3.5870     0.7580 cd         1 18I      -0.094100
     29 C24         -0.2710     4.1640    -0.0920 ca         1 18I      -0.048200
     30 C25          0.9710     4.7380    -0.3570 ca         1 18I      -0.141000
     31 C26          1.6970     4.2280    -1.4170 ca         1 18I      -0.112000
     32 C27          1.1970     3.1800    -2.2080 ca         1 18I      -0.154000
     33 C28         -0.0360     2.6170    -1.9450 ca         1 18I      -0.096000
     34 C29         -0.7860     3.0990    -0.8650 ca         1 18I      -0.096800
     35 H1          -7.0550    -0.7040     1.2430 ha         1 18I       0.154000
     36 H2          -8.9720    -2.1570     0.7730 h4         1 18I       0.018600
     37 HN2         -4.8950    -0.1630     0.8290 hn         1 18I       0.319500
     38 H3          -6.8460    -4.3150    -1.9980 h4         1 18I       0.018600
     39 HN3         -0.7020     0.2670    -0.8280 hn         1 18I       0.333500
     40 H4          -4.8360    -2.9800    -1.6670 ha         1 18I       0.154000
     41 HN4         -1.1070     5.1580     1.5780 hn         1 18I       0.303700
     42 H7          -2.8320     0.5180     1.1540 h1         1 18I       0.080700
     43 H10          1.1660     1.2880     0.2800 ha         1 18I       0.151000
     44 H11          3.5920     1.1900     0.1040 ha         1 18I       0.143000
     45 H14          5.4360    -2.3570     2.0730 ha         1 18I       0.142000
     46 H15          7.8830    -2.4650     1.8800 ha         1 18I       0.139000
     47 H16          9.0670    -1.1430     0.1440 ha         1 18I       0.152000
     48 H18          5.3200     0.3840    -1.2390 ha         1 18I       0.152000
     49 H19          3.4750    -3.0120     1.0020 ha         1 18I       0.156000
     50 H21         -2.8060     1.3900    -1.7700 hc         1 18I       0.059700
     51 H21A        -3.9720     1.8380    -0.5470 hc         1 18I       0.059700
     52 H23         -3.0760     3.6410     1.4470 h4         1 18I       0.163000
     53 H25          1.3580     5.5490     0.2460 ha         1 18I       0.135000
     54 H26          2.6680     4.6470    -1.6460 ha         1 18I       0.132000
     55 H27          1.7900     2.8090    -3.0340 ha         1 18I       0.134000
     56 H28         -0.4130     1.8150    -2.5710 ha         1 18I       0.133000
     57 N2          -4.7000    -0.8590     0.1240 ns         1 18I      -0.470100
     58 C8          -0.5590    -0.7170     0.9430 c          1 18I       0.693700
     59 O2          -3.0260    -1.6440    -1.2100 o          1 18I      -0.557100
@<TRIPOS>BOND
     1     1     5 ar  
     2     1    11 ar  
     3     1    35 1   
     4     2    22 1   
     5     3     5 ar  
     6     3     7 ar  
     7     4    58 2   
     8     5    36 1   
     9     6    25 1   
    10     7     9 ar  
    11     7    38 1   
    12     8    13 1   
    13     8    39 1   
    14     8    58 1   
    15     9    11 ar  
    16     9    40 1   
    17    10    28 1   
    18    10    29 1   
    19    10    41 1   
    20    11    57 1   
    21    12    13 1   
    22    12    57 1   
    23    12    59 2   
    24    13    26 1   
    25    13    42 1   
    26    14    15 ar  
    27    14    25 ar  
    28    14    58 1   
    29    15    16 ar  
    30    15    43 1   
    31    16    17 ar  
    32    16    44 1   
    33    17    18 1   
    34    17    24 ar  
    35    18    19 ar  
    36    18    23 ar  
    37    19    20 ar  
    38    19    45 1   
    39    20    21 ar  
    40    20    46 1   
    41    21    22 ar  
    42    21    47 1   
    43    22    23 ar  
    44    23    48 1   
    45    24    25 ar  
    46    24    49 1   
    47    26    27 1   
    48    26    50 1   
    49    26    51 1   
    50    27    28 2   
    51    27    34 1   
    52    28    52 1   
    53    29    30 ar  
    54    29    34 ar  
    55    30    31 ar  
    56    30    53 1   
    57    31    32 ar  
    58    31    54 1   
    59    32    33 ar  
    60    32    55 1   
    61    33    34 ar  
    62    33    56 1   
    63    37    57 1   
@<TRIPOS>SUBSTRUCTURE
     1 18I         1 TEMP              0 ****  ****    0 ROOT
