@<TRIPOS>MOLECULE
18I
   59    63     1     0     0
SMALL
No Charge or Current Charge


@<TRIPOS>ATOM
      1 C1          -7.1850    -1.3840     0.2790 ca         1 18I      -0.208500
      2 F1           7.9540     0.5210    -1.6770 f          1 18I      -0.178000
      3 N1          -8.2190    -3.2710    -0.8280 nb         1 18I      -0.682000
      4 O1          -1.1630    -1.6510     1.6660 o          1 18I      -0.583100
      5 C2          -8.2910    -2.1990    -0.0100 ca         1 18I       0.357400
      6 F2           1.1110    -3.2010     1.5200 f          1 18I      -0.155000
      7 C3          -7.0200    -3.5560    -1.3840 ca         1 18I       0.357400
      8 N3          -1.2070     0.0260     0.1480 ns         1 18I      -0.482900
      9 C4          -5.8650    -2.7940    -1.1470 ca         1 18I      -0.208500
     10 N4          -0.9290     4.4450     1.0180 na         1 18I      -0.217700
     11 C5          -5.9360    -1.6740    -0.2940 ca         1 18I       0.021000
     12 C6          -3.5060    -0.8430    -0.3890 c          1 18I       0.594100
     13 C7          -2.6590     0.3100     0.2250 c3         1 18I       0.037700
     14 C9           0.9570    -0.9110     0.7910 ca         1 18I      -0.193600
     15 C10          1.6520     0.2440     0.3580 ca         1 18I      -0.061000
     16 C11          3.0520     0.2400     0.2480 ca         1 18I      -0.126000
     17 C12          3.8130    -0.9080     0.5690 cp         1 18I       0.009000
     18 C13          5.3070    -0.9070     0.4480 cp         1 18I      -0.017000
     19 C14          6.1170    -1.6380     1.3560 ca         1 18I      -0.111000
     20 C15          7.5190    -1.6380     1.2450 ca         1 18I      -0.084000
     21 C16          8.1410    -0.9070     0.2200 ca         1 18I      -0.145000
     22 C17          7.3580    -0.1800    -0.6880 ca         1 18I       0.170000
     23 C18          5.9590    -0.1770    -0.5780 ca         1 18I      -0.140000
     24 C19          3.1110    -2.0540     1.0090 ca         1 18I      -0.158000
     25 C20          1.7120    -2.0580     1.1220 ca         1 18I       0.228000
     26 C21         -2.9880     1.6640    -0.4570 c3         1 18I      -0.007200
     27 C22         -2.0180     2.7610    -0.0970 cc         1 18I      -0.153400
     28 C23         -2.0830     3.6230     0.9930 cd         1 18I      -0.144100
     29 C24         -0.1660     4.0630    -0.0700 ca         1 18I      -0.048200
     30 C25          1.0800     4.5690    -0.4650 ca         1 18I      -0.123000
     31 C26          1.6840     4.0260    -1.6190 ca         1 18I      -0.094000
     32 C27          1.0330     3.0050    -2.3520 ca         1 18I      -0.136000
     33 C28         -0.2220     2.5160    -1.9310 ca         1 18I      -0.078000
     34 C29         -0.7870     3.0700    -0.7720 ca         1 18I      -0.096800
     35 H1          -7.3090    -0.5360     0.9460 ha         1 18I       0.136000
     36 H2          -9.2660    -1.9860     0.4280 h4         1 18I       0.018600
     37 HN2         -5.0670    -0.0820     0.6570 hn         1 18I       0.153000
     38 H3          -6.9850    -4.4250    -2.0400 h4         1 18I       0.018600
     39 HN3         -0.6340     0.6180    -0.4380 hn         1 18I       0.333500
     40 H4          -4.9440    -3.0940    -1.6330 ha         1 18I       0.136000
     41 HN4         -0.7020     5.1610     1.7020 hn         1 18I       0.354000
     42 H7          -2.9280     0.3870     1.2860 h1         1 18I       0.080700
     43 H10          1.1240     1.1660     0.1310 ha         1 18I       0.133000
     44 H11          3.5520     1.1510    -0.0710 ha         1 18I       0.125000
     45 H14          5.6560    -2.1990     2.1650 ha         1 18I       0.124000
     46 H15          8.1210    -2.2030     1.9540 ha         1 18I       0.121000
     47 H16          9.2240    -0.9030     0.1270 ha         1 18I       0.134000
     48 H18          5.3780     0.3850    -1.3030 ha         1 18I       0.134000
     49 H19          3.6530    -2.9630     1.2510 ha         1 18I       0.138000
     50 H21         -2.9880     1.5270    -1.5460 hc         1 18I       0.059700
     51 H21A        -4.0080     1.9680    -0.1900 hc         1 18I       0.059700
     52 H23         -2.8500     3.6960     1.7600 h4         1 18I       0.213000
     53 H25          1.5700     5.3570     0.1020 ha         1 18I       0.117000
     54 H26          2.6510     4.3980    -1.9500 ha         1 18I       0.114000
     55 H27          1.5030     2.5950    -3.2430 ha         1 18I       0.116000
     56 H28         -0.7280     1.7330    -2.4910 ha         1 18I       0.115000
     57 N2          -4.8360    -0.8320     0.0180 ns         1 18I      -0.144000
     58 C8          -0.5480    -0.9120     0.9110 c          1 18I       0.626700
     59 O2          -3.0350    -1.6720    -1.1630 o          1 18I      -0.557100
@<TRIPOS>BOND
     1     1     5 ar  
     2     1    11 ar  
     3     1    35 1   
     4     2    22 1   
     5     3     5 ar  
     6     3     7 ar  
     7     4    58 2   
     8     5    36 1   
     9     6    25 1   
    10     7     9 ar  
    11     7    38 1   
    12     8    13 1   
    13     8    39 1   
    14     8    58 1   
    15     9    11 ar  
    16     9    40 1   
    17    10    28 1   
    18    10    29 1   
    19    10    41 1   
    20    11    57 1   
    21    12    13 1   
    22    12    57 1   
    23    12    59 2   
    24    13    26 1   
    25    13    42 1   
    26    14    15 ar  
    27    14    25 ar  
    28    14    58 1   
    29    15    16 ar  
    30    15    43 1   
    31    16    17 ar  
    32    16    44 1   
    33    17    18 1   
    34    17    24 ar  
    35    18    19 ar  
    36    18    23 ar  
    37    19    20 ar  
    38    19    45 1   
    39    20    21 ar  
    40    20    46 1   
    41    21    22 ar  
    42    21    47 1   
    43    22    23 ar  
    44    23    48 1   
    45    24    25 ar  
    46    24    49 1   
    47    26    27 1   
    48    26    50 1   
    49    26    51 1   
    50    27    28 2   
    51    27    34 1   
    52    28    52 1   
    53    29    30 ar  
    54    29    34 ar  
    55    30    31 ar  
    56    30    53 1   
    57    31    32 ar  
    58    31    54 1   
    59    32    33 ar  
    60    32    55 1   
    61    33    34 ar  
    62    33    56 1   
    63    37    57 1   
@<TRIPOS>SUBSTRUCTURE
     1 18I         1 TEMP              0 ****  ****    0 ROOT
