@<TRIPOS>MOLECULE
18J
   44    45     1     0     0
SMALL
No Charge or Current Charge


@<TRIPOS>ATOM
      1 C2           0.1650    -0.0030   -10.2880 ca         1 18J       0.142100
      2 C3          -0.5290     1.0890    -9.7260 ca         1 18J      -0.132800
      3 C4          -0.8080     1.1010    -8.3460 ca         1 18J      -0.063500
      4 C5          -0.4020     0.0350    -7.5170 ca         1 18J      -0.088800
      5 C6           0.2900    -1.0480    -8.0920 ca         1 18J      -0.063500
      6 C7           0.5780    -1.0790    -9.4710 ca         1 18J      -0.132800
      7 C8           1.3320    -2.2750   -10.0500 c3         1 18J      -0.041300
      8 C25         -5.2210    -0.7470     0.3200 c3         1 18J      -0.065100
      9 C24         -5.1840     0.8000     0.3770 c3         1 18J      -0.348400
     10 S21         -3.7220     1.4770     1.1820 s6         1 18J       1.211100
     11 O23         -3.5910     0.8790     2.5120 o          1 18J      -0.533000
     12 O22         -3.7010     2.9320     1.0190 o          1 18J      -0.533000
     13 C17         -2.1810     0.9270    -1.0450 ca         1 18J       0.268000
     14 C18         -2.7160     1.9190    -1.8890 ca         1 18J      -0.140500
     15 C19         -2.4350     1.9120    -3.2660 ca         1 18J      -0.077000
     16 C14         -1.6120     0.9170    -3.8270 ca         1 18J      -0.057800
     17 C15         -1.0670    -0.0690    -2.9800 ca         1 18J      -0.077000
     18 C16         -1.3510    -0.0590    -1.6020 ca         1 18J      -0.140500
     19 C12         -1.3340     0.9410    -5.2950 ce         1 18J      -0.164200
     20 C11         -0.6810     0.0210    -6.0650 cf         1 18J      -0.131200
     21 O1           0.4360    -0.0160   -11.6280 oh         1 18J      -0.541100
     22 C10         -0.9820     2.2600   -10.5960 c3         1 18J      -0.041300
     23 H1          -1.3420     1.9480    -7.9260 ha         1 18J       0.112500
     24 H2           0.6080    -1.8760    -7.4620 ha         1 18J       0.112500
     25 H3           2.2790    -1.9650   -10.5080 hc         1 18J       0.044033
     26 H4           1.5750    -3.0150    -9.2780 hc         1 18J       0.044033
     27 H5           0.7350    -2.7890   -10.8130 hc         1 18J       0.044033
     28 H6          -6.1460    -1.0880    -0.1610 hc         1 18J       0.047367
     29 H7          -4.3760    -1.1430    -0.2580 hc         1 18J       0.047367
     30 H8          -5.1850    -1.1800     1.3280 hc         1 18J       0.047367
     31 H9          -6.0400     1.1850     0.9420 h1         1 18J       0.103700
     32 H10         -5.2020     1.2230    -0.6330 h1         1 18J       0.103700
     33 H11         -2.1160     0.0720     0.8380 hn         1 18J       0.494000
     34 H12         -3.3480     2.7060    -1.4920 ha         1 18J       0.131500
     35 H13         -2.8610     2.6880    -3.8990 ha         1 18J       0.118000
     36 H14         -0.4190    -0.8470    -3.3730 ha         1 18J       0.118000
     37 H15         -0.9200    -0.8270    -0.9660 ha         1 18J       0.131500
     38 H16         -1.7260     1.8300    -5.7870 ha         1 18J       0.173000
     39 H17         -0.3020    -0.8690    -5.5630 ha         1 18J       0.168000
     40 H18          0.9190    -0.8430   -11.8350 ho         1 18J       0.464000
     41 H19         -1.6660     1.9220   -11.3840 hc         1 18J       0.044033
     42 H20         -1.5070     3.0260   -10.0130 hc         1 18J       0.044033
     43 H21         -0.1260     2.7450   -11.0800 hc         1 18J       0.044033
     44 N20         -2.4290     0.8850     0.3250 nu         1 18J      -0.885100
@<TRIPOS>BOND
     1     1     2 ar  
     2     1     6 ar  
     3     1    21 1   
     4     2     3 ar  
     5     2    22 1   
     6     3     4 ar  
     7     3    23 1   
     8     4     5 ar  
     9     4    20 1   
    10     5     6 ar  
    11     5    24 1   
    12     6     7 1   
    13     7    25 1   
    14     7    26 1   
    15     7    27 1   
    16     8     9 1   
    17     8    28 1   
    18     8    29 1   
    19     8    30 1   
    20     9    10 1   
    21     9    31 1   
    22     9    32 1   
    23    10    11 2   
    24    10    12 2   
    25    10    44 1   
    26    13    14 ar  
    27    13    18 ar  
    28    13    44 1   
    29    14    15 ar  
    30    14    34 1   
    31    15    16 ar  
    32    15    35 1   
    33    16    17 ar  
    34    16    19 1   
    35    17    18 ar  
    36    17    36 1   
    37    18    37 1   
    38    19    20 2   
    39    19    38 1   
    40    20    39 1   
    41    21    40 1   
    42    22    41 1   
    43    22    42 1   
    44    22    43 1   
    45    33    44 1   
@<TRIPOS>SUBSTRUCTURE
     1 18J         1 TEMP              0 ****  ****    0 ROOT
