@<TRIPOS>MOLECULE
18J
   44    45     1     0     0
SMALL
abcg2


@<TRIPOS>ATOM
      1 C2           0.1580     0.0080   -10.1970 ca         1 18J       0.142100
      2 C3          -0.5140     1.1150    -9.6590 ca         1 18J      -0.132800
      3 C4          -0.8080     1.1140    -8.3040 ca         1 18J      -0.063500
      4 C5          -0.4530     0.0470    -7.4660 ca         1 18J      -0.088800
      5 C6           0.2190    -1.0360    -8.0460 ca         1 18J      -0.063500
      6 C7           0.5330    -1.0790    -9.4010 ca         1 18J      -0.132800
      7 C8           1.2550    -2.2560   -10.0000 c3         1 18J      -0.041300
      8 C25         -5.0140    -0.9000     0.4760 c3         1 18J      -0.065100
      9 C24         -5.1320     0.6010     0.2610 c3         1 18J      -0.348400
     10 S21         -3.8030     1.5290     1.0140 s6         1 18J       1.211100
     11 O23         -3.6620     1.1520     2.4010 o          1 18J      -0.533000
     12 O22         -3.9990     2.9220     0.6880 o          1 18J      -0.533000
     13 C17         -2.1930     1.0040    -1.1130 ca         1 18J       0.268000
     14 C18         -2.5430     2.0800    -1.9270 ca         1 18J      -0.140500
     15 C19         -2.2820     2.0240    -3.2880 ca         1 18J      -0.077000
     16 C14         -1.6490     0.9240    -3.8830 ca         1 18J      -0.057800
     17 C15         -1.3010    -0.1450    -3.0420 ca         1 18J      -0.077000
     18 C16         -1.5750    -0.1110    -1.6870 ca         1 18J      -0.140500
     19 C12         -1.3790     0.9530    -5.3180 ce         1 18J      -0.164200
     20 C11         -0.7400     0.0130    -6.0350 cf         1 18J      -0.131200
     21 O1           0.4290     0.0480   -11.5380 oh         1 18J      -0.541100
     22 C10         -0.8970     2.2670   -10.5450 c3         1 18J      -0.041300
     23 H1          -1.3260     1.9730    -7.8970 ha         1 18J       0.112500
     24 H2           0.5070    -1.8730    -7.4200 ha         1 18J       0.112500
     25 H3           2.2000    -1.9560   -10.4650 hc         1 18J       0.044033
     26 H4           1.4810    -2.9960    -9.2350 hc         1 18J       0.044033
     27 H5           0.6540    -2.7470   -10.7730 hc         1 18J       0.044033
     28 H6          -5.8670    -1.3910     0.0080 hc         1 18J       0.047367
     29 H7          -4.1060    -1.2960     0.0210 hc         1 18J       0.047367
     30 H8          -5.0130    -1.1470     1.5360 hc         1 18J       0.047367
     31 H9          -6.0360     1.0170     0.7090 h1         1 18J       0.103700
     32 H10         -5.1170     0.8740    -0.7950 h1         1 18J       0.103700
     33 H11         -2.0330     0.2040     0.7770 hn         1 18J       0.494000
     34 H12         -3.0090     2.9540    -1.5000 ha         1 18J       0.131500
     35 H13         -2.5610     2.8680    -3.9090 ha         1 18J       0.118000
     36 H14         -0.8170    -1.0240    -3.4490 ha         1 18J       0.118000
     37 H15         -1.3090    -0.9540    -1.0600 ha         1 18J       0.131500
     38 H16         -1.7380     1.8450    -5.8200 ha         1 18J       0.173000
     39 H17         -0.3790    -0.8770    -5.5290 ha         1 18J       0.168000
     40 H18          0.8940    -0.7520   -11.8130 ho         1 18J       0.464000
     41 H19         -1.5620     1.9440   -11.3510 hc         1 18J       0.044033
     42 H20         -1.4050     3.0400    -9.9690 hc         1 18J       0.044033
     43 H21         -0.0190     2.7110   -11.0200 hc         1 18J       0.044033
     44 N20         -2.4020     1.0140     0.2920 nu         1 18J      -0.885100
@<TRIPOS>BOND
     1     1     2 ar  
     2     1     6 ar  
     3     1    21 1   
     4     2     3 ar  
     5     2    22 1   
     6     3     4 ar  
     7     3    23 1   
     8     4     5 ar  
     9     4    20 1   
    10     5     6 ar  
    11     5    24 1   
    12     6     7 1   
    13     7    25 1   
    14     7    26 1   
    15     7    27 1   
    16     8     9 1   
    17     8    28 1   
    18     8    29 1   
    19     8    30 1   
    20     9    10 1   
    21     9    31 1   
    22     9    32 1   
    23    10    11 2   
    24    10    12 2   
    25    10    44 1   
    26    13    14 ar  
    27    13    18 ar  
    28    13    44 1   
    29    14    15 ar  
    30    14    34 1   
    31    15    16 ar  
    32    15    35 1   
    33    16    17 ar  
    34    16    19 1   
    35    17    18 ar  
    36    17    36 1   
    37    18    37 1   
    38    19    20 2   
    39    19    38 1   
    40    20    39 1   
    41    21    40 1   
    42    22    41 1   
    43    22    42 1   
    44    22    43 1   
    45    33    44 1   
@<TRIPOS>SUBSTRUCTURE
     1 18J         1 TEMP              0 ****  ****    0 ROOT
