@<TRIPOS>MOLECULE
18K
   41    43     1     0     0
SMALL
No Charge or Current Charge


@<TRIPOS>ATOM
      1 S           -5.1090     1.0320     0.0730 ss         1 18K      -0.096400
      2 C1          -3.0390    -2.4730    -0.1370 c3         1 18K      -0.122400
      3 N1          -5.3160    -1.5780    -0.0990 nc         1 18K      -0.752000
      4 C2          -3.9720    -1.2940    -0.0660 cc         1 18K       0.413300
      5 N2          -7.3230    -0.5890    -0.0630 nv         1 18K      -1.052900
      6 C3          -5.9940    -0.4720    -0.0260 cd         1 18K       0.719300
      7 N3           0.2310     1.7900     0.1990 nb         1 18K      -0.238000
      8 C4          -3.6430     0.0520     0.0250 cd         1 18K      -0.348500
      9 N4           1.0610    -0.4110     0.1170 nu         1 18K      -0.928900
     10 C5          -2.3030     0.6790     0.0820 ca         1 18K       0.282500
     11 N5           6.7090     0.0120    -0.1510 nh         1 18K      -0.815400
     12 C6          -2.1470     2.0770     0.1620 ca         1 18K      -0.290000
     13 N6          -1.2170    -0.1190     0.0630 nb         1 18K      -0.267000
     14 C7          -0.8450     2.5950     0.2200 ca         1 18K       0.150900
     15 C8          -0.0120     0.4710     0.1100 ca         1 18K       0.394900
     16 C9           2.4540    -0.2690     0.0440 ca         1 18K       0.262000
     17 C10          3.2660    -1.2830     0.5810 ca         1 18K      -0.098500
     18 C11          4.6700    -1.1900     0.5200 ca         1 18K      -0.161500
     19 C12          5.2940    -0.0830    -0.0890 ca         1 18K       0.304000
     20 C13          7.3950     1.3250    -0.2190 c3         1 18K       0.209100
     21 C14          7.5680    -1.1960    -0.1490 c3         1 18K       0.209100
     22 C15          4.4770     0.9250    -0.6410 ca         1 18K      -0.161500
     23 C16          3.0740     0.8320    -0.5800 ca         1 18K      -0.098500
     24 H1          -2.3840    -2.3980    -1.0120 hc         1 18K       0.058033
     25 H1A         -2.4150    -2.5290     0.7620 hc         1 18K       0.058033
     26 H1B         -3.5880    -3.4190    -0.2160 hc         1 18K       0.058033
     27 HN2         -7.8420     0.2250    -0.3700 hn         1 18K       0.491000
     28 HN2A        -7.6610    -1.4860    -0.3890 hn         1 18K       0.491000
     29 HN4          0.7570    -1.3710     0.2790 hn         1 18K       0.505000
     30 H6          -2.9960     2.7520     0.1810 ha         1 18K       0.134000
     31 H7          -0.6610     3.6660     0.2870 h4         1 18K       0.019100
     32 H10          2.8110    -2.1460     1.0600 ha         1 18K       0.122500
     33 H11          5.2660    -1.9830     0.9610 ha         1 18K       0.112000
     34 H13          8.4200     1.2510     0.1710 h1         1 18K       0.033700
     35 H13A         7.4420     1.6810    -1.2560 h1         1 18K       0.033700
     36 H13B         6.8640     2.0700     0.3880 h1         1 18K       0.033700
     37 H14          7.0940    -2.0070    -0.7170 h1         1 18K       0.033700
     38 H14A         8.5390    -0.9860    -0.6200 h1         1 18K       0.033700
     39 H14B         7.7470    -1.5390     0.8780 h1         1 18K       0.033700
     40 H15          4.9230     1.7810    -1.1380 ha         1 18K       0.112000
     41 H16          2.4780     1.6130    -1.0400 ha         1 18K       0.122500
@<TRIPOS>BOND
     1     1     6 1   
     2     1     8 1   
     3     2     4 1   
     4     2    24 1   
     5     2    25 1   
     6     2    26 1   
     7     3     4 1   
     8     3     6 2   
     9     4     8 2   
    10     5     6 1   
    11     5    27 1   
    12     5    28 1   
    13     7    14 ar  
    14     7    15 ar  
    15     8    10 1   
    16     9    15 1   
    17     9    16 1   
    18     9    29 1   
    19    10    12 ar  
    20    10    13 ar  
    21    11    19 1   
    22    11    20 1   
    23    11    21 1   
    24    12    14 ar  
    25    12    30 1   
    26    13    15 ar  
    27    14    31 1   
    28    16    17 ar  
    29    16    23 ar  
    30    17    18 ar  
    31    17    32 1   
    32    18    19 ar  
    33    18    33 1   
    34    19    22 ar  
    35    20    34 1   
    36    20    35 1   
    37    20    36 1   
    38    21    37 1   
    39    21    38 1   
    40    21    39 1   
    41    22    23 ar  
    42    22    40 1   
    43    23    41 1   
@<TRIPOS>SUBSTRUCTURE
     1 18K         1 TEMP              0 ****  ****    0 ROOT
