@<TRIPOS>MOLECULE
18K
   41    43     1     0     0
SMALL
abcg2


@<TRIPOS>ATOM
      1 S           -4.9960     0.9730     0.0990 ss         1 18K      -0.096400
      2 C1          -2.9760    -2.4940    -0.1790 c3         1 18K      -0.122400
      3 N1          -5.2380    -1.5740    -0.1090 nc         1 18K      -0.752000
      4 C2          -3.9010    -1.3250    -0.0850 cc         1 18K       0.413300
      5 N2          -7.2770    -0.4410     0.0120 nv         1 18K      -1.052900
      6 C3          -5.9380    -0.4750    -0.0240 cd         1 18K       0.719300
      7 N3           0.2840     1.6920     0.1380 nb         1 18K      -0.238000
      8 C4          -3.5450    -0.0010     0.0220 cd         1 18K      -0.348500
      9 N4           1.0620    -0.4870    -0.0810 nu         1 18K      -0.928900
     10 C5          -2.2390     0.6170     0.0700 ca         1 18K       0.282500
     11 N5           6.6520     0.1110     0.0820 nh         1 18K      -0.815400
     12 C6          -2.0800     2.0060     0.2100 ca         1 18K      -0.290000
     13 N6          -1.1780    -0.1740    -0.0250 nb         1 18K      -0.267000
     14 C7          -0.7850     2.4740     0.2360 ca         1 18K       0.150900
     15 C8           0.0320     0.3910     0.0150 ca         1 18K       0.394900
     16 C9           2.4440    -0.2660    -0.0420 ca         1 18K       0.262000
     17 C10          3.2570    -1.3180     0.3770 ca         1 18K      -0.098500
     18 C11          4.6360    -1.2100     0.4000 ca         1 18K      -0.161500
     19 C12          5.2810    -0.0210     0.0210 ca         1 18K       0.304000
     20 C13          7.2720     1.2490    -0.5540 c3         1 18K       0.209100
     21 C14          7.4570    -1.0750     0.2590 c3         1 18K       0.209100
     22 C15          4.4540     1.0260    -0.4140 ca         1 18K      -0.161500
     23 C16          3.0730     0.9090    -0.4470 ca         1 18K      -0.098500
     24 H1          -2.3490    -2.4360    -1.0680 hc         1 18K       0.058033
     25 H1A         -2.3000    -2.5400     0.6730 hc         1 18K       0.058033
     26 H1B         -3.5560    -3.4130    -0.2200 hc         1 18K       0.058033
     27 HN2         -7.7690     0.4200    -0.1540 hn         1 18K       0.491000
     28 HN2A        -7.7690    -1.2830    -0.2440 hn         1 18K       0.491000
     29 HN4          0.7690    -1.4520    -0.0860 hn         1 18K       0.505000
     30 H6          -2.9110     2.6910     0.2940 ha         1 18K       0.134000
     31 H7          -0.5940     3.5370     0.3400 h4         1 18K       0.019100
     32 H10          2.8050    -2.2520     0.6900 ha         1 18K       0.122500
     33 H11          5.2000    -2.0710     0.7300 ha         1 18K       0.112000
     34 H13          8.3450     1.2140    -0.3820 h1         1 18K       0.033700
     35 H13A         7.1060     1.2830    -1.6380 h1         1 18K       0.033700
     36 H13B         6.9110     2.1880    -0.1310 h1         1 18K       0.033700
     37 H14          7.3320    -1.8050    -0.5500 h1         1 18K       0.033700
     38 H14A         8.5060    -0.7930     0.2970 h1         1 18K       0.033700
     39 H14B         7.2260    -1.5770     1.2000 h1         1 18K       0.033700
     40 H15          4.8780     1.9620    -0.7490 ha         1 18K       0.112000
     41 H16          2.4930     1.7490    -0.7960 ha         1 18K       0.122500
@<TRIPOS>BOND
     1     1     6 1   
     2     1     8 1   
     3     2     4 1   
     4     2    24 1   
     5     2    25 1   
     6     2    26 1   
     7     3     4 1   
     8     3     6 2   
     9     4     8 2   
    10     5     6 1   
    11     5    27 1   
    12     5    28 1   
    13     7    14 ar  
    14     7    15 ar  
    15     8    10 1   
    16     9    15 1   
    17     9    16 1   
    18     9    29 1   
    19    10    12 ar  
    20    10    13 ar  
    21    11    19 1   
    22    11    20 1   
    23    11    21 1   
    24    12    14 ar  
    25    12    30 1   
    26    13    15 ar  
    27    14    31 1   
    28    16    17 ar  
    29    16    23 ar  
    30    17    18 ar  
    31    17    32 1   
    32    18    19 ar  
    33    18    33 1   
    34    19    22 ar  
    35    20    34 1   
    36    20    35 1   
    37    20    36 1   
    38    21    37 1   
    39    21    38 1   
    40    21    39 1   
    41    22    23 ar  
    42    22    40 1   
    43    23    41 1   
@<TRIPOS>SUBSTRUCTURE
     1 18K         1 TEMP              0 ****  ****    0 ROOT
