@<TRIPOS>MOLECULE
18N
   22    24     1     0     0
SMALL
No Charge or Current Charge


@<TRIPOS>ATOM
      1 CAO         -0.4700    -0.0230     0.0060 ca         1 18N       0.023000
      2 CAM          0.2390    -1.2420    -0.0050 ca         1 18N      -0.166600
      3 CAG         -0.4730    -2.4610    -0.0140 ca         1 18N      -0.016000
      4 CAC         -1.8770    -2.4600    -0.0130 ca         1 18N      -0.130500
      5 CAE         -2.5830    -1.2460    -0.0030 ca         1 18N      -0.056000
      6 CAL         -1.8840    -0.0260     0.0060 ca         1 18N      -0.063000
      7 CAF         -2.5900     1.1910     0.0170 ca         1 18N      -0.056000
      8 CAD         -1.8900     2.4080     0.0260 ca         1 18N      -0.130500
      9 CAH         -0.4850     2.4160     0.0260 ca         1 18N      -0.016000
     10 CAN          0.2330     1.2010     0.0150 ca         1 18N      -0.166600
     11 CAK          1.7360     1.2050     0.0140 c          1 18N       0.595600
     12 OAB          2.4020     2.2280     0.0220 o          1 18N      -0.522500
     13 NAI          2.3350    -0.0160     0.0040 ns         1 18N      -0.469500
     14 CAJ          1.7420    -1.2390    -0.0060 c          1 18N       0.595600
     15 OAA          2.4130    -2.2590    -0.0140 o          1 18N      -0.522500
     16 HAG          0.0600    -3.4100    -0.0220 ha         1 18N       0.140000
     17 HAC         -2.4200    -3.4030    -0.0210 ha         1 18N       0.125000
     18 HAE         -3.6710    -1.2570    -0.0030 ha         1 18N       0.120000
     19 HAF         -3.6770     1.1960     0.0180 ha         1 18N       0.120000
     20 HAD         -2.4370     3.3480     0.0340 ha         1 18N       0.125000
     21 HAH          0.0430     3.3680     0.0330 ha         1 18N       0.140000
     22 HNAI         3.3430    -0.0130     0.0040 hn         1 18N       0.333500
@<TRIPOS>BOND
     1     1     2 ar  
     2     1     6 ar  
     3     1    10 ar  
     4     2     3 ar  
     5     2    14 1   
     6     3     4 ar  
     7     3    16 1   
     8     4     5 ar  
     9     4    17 1   
    10     5     6 ar  
    11     5    18 1   
    12     6     7 ar  
    13     7     8 ar  
    14     7    19 1   
    15     8     9 ar  
    16     8    20 1   
    17     9    10 ar  
    18     9    21 1   
    19    10    11 1   
    20    11    12 2   
    21    11    13 1   
    22    13    14 1   
    23    13    22 1   
    24    14    15 2   
@<TRIPOS>SUBSTRUCTURE
     1 18N         1 TEMP              0 ****  ****    0 ROOT
