@<TRIPOS>MOLECULE
18N
   22    24     1     0     0
SMALL
bcc


@<TRIPOS>ATOM
      1 CAO         -0.4650    -0.0220     0.0060 ca         1 18N       0.023000
      2 CAM          0.2300    -1.2520    -0.0040 ca         1 18N      -0.166600
      3 CAG         -0.4630    -2.4400    -0.0140 ca         1 18N      -0.034000
      4 CAC         -1.8660    -2.4450    -0.0140 ca         1 18N      -0.148500
      5 CAE         -2.5600    -1.2640    -0.0040 ca         1 18N      -0.074000
      6 CAL         -1.8790    -0.0260     0.0070 ca         1 18N      -0.063000
      7 CAF         -2.5660     1.2080     0.0170 ca         1 18N      -0.074000
      8 CAD         -1.8780     2.3930     0.0270 ca         1 18N      -0.148500
      9 CAH         -0.4750     2.3950     0.0260 ca         1 18N      -0.034000
     10 CAN          0.2240     1.2100     0.0150 ca         1 18N      -0.166600
     11 CAK          1.6960     1.2220     0.0140 c          1 18N       0.738100
     12 OAB          2.3650     2.2340     0.0210 o          1 18N      -0.598000
     13 NAI          2.3010    -0.0160     0.0030 ns         1 18N      -0.603500
     14 CAJ          1.7020    -1.2560    -0.0040 c          1 18N       0.738100
     15 OAA          2.3760    -2.2650    -0.0110 o          1 18N      -0.598000
     16 HAG          0.0760    -3.3780    -0.0220 ha         1 18N       0.158000
     17 HAC         -2.3960    -3.3880    -0.0220 ha         1 18N       0.143000
     18 HAE         -3.6430    -1.2660    -0.0040 ha         1 18N       0.138000
     19 HAF         -3.6490     1.2060     0.0180 ha         1 18N       0.138000
     20 HAD         -2.4130     3.3330     0.0350 ha         1 18N       0.143000
     21 HAH          0.0590     3.3360     0.0330 ha         1 18N       0.158000
     22 HNAI         3.3150    -0.0130     0.0010 hn         1 18N       0.333500
@<TRIPOS>BOND
     1     1     2 ar  
     2     1     6 ar  
     3     1    10 ar  
     4     2     3 ar  
     5     2    14 1   
     6     3     4 ar  
     7     3    16 1   
     8     4     5 ar  
     9     4    17 1   
    10     5     6 ar  
    11     5    18 1   
    12     6     7 ar  
    13     7     8 ar  
    14     7    19 1   
    15     8     9 ar  
    16     8    20 1   
    17     9    10 ar  
    18     9    21 1   
    19    10    11 1   
    20    11    12 2   
    21    11    13 1   
    22    13    14 1   
    23    13    22 1   
    24    14    15 2   
@<TRIPOS>SUBSTRUCTURE
     1 18N         1 TEMP              0 ****  ****    0 ROOT
