@<TRIPOS>MOLECULE
18O
   44    45     1     0     0
SMALL
No Charge or Current Charge


@<TRIPOS>ATOM
      1 C1          -2.4710     0.4740    -0.3980 c6         1 18O       0.299700
      2 N1          -1.2320     1.1700    -0.0700 ns         1 18O      -0.427900
      3 S1          -2.2970     3.6360    -0.0810 s          1 18O      -0.589400
      4 C2          -2.1900    -0.9010    -1.0950 c6         1 18O       0.100300
      5 N2           0.1750     2.8580     0.5930 ns         1 18O      -0.225900
      6 O2          -1.5390    -0.7510    -2.3790 oh         1 18O      -0.712000
      7 C3          -3.5380    -1.6540    -1.2830 c6         1 18O       0.138300
      8 N3           1.2300     1.9730     0.7810 n2         1 18O      -0.470300
      9 O3          -3.3070    -2.9380    -1.8880 oh         1 18O      -0.664000
     10 C4          -4.2720    -1.8100     0.0800 c6         1 18O       0.142300
     11 N4           6.5870    -1.8990     0.1970 no         1 18O       0.693200
     12 O4          -5.5320    -2.4770    -0.1220 oh         1 18O      -0.714000
     13 C5          -4.4430    -0.4020     0.7330 c6         1 18O       0.179300
     14 O5          -3.1450     0.2410     0.8550 os         1 18O      -0.454000
     15 C6          -5.0930    -0.4830     2.1550 c3         1 18O       0.172600
     16 O6          -5.2210     0.8010     2.8030 oh         1 18O      -0.704000
     17 C7          -1.0870     2.5070     0.1630 cs         1 18O       0.487400
     18 O7           6.6360    -2.6710     1.1640 o          1 18O      -0.394000
     19 C8           2.1750     1.9120    -0.1100 ce         1 18O       0.389800
     20 O8           7.4250    -1.8890    -0.7150 o          1 18O      -0.394000
     21 C9           3.2990     0.9300    -0.0090 ca         1 18O      -0.086900
     22 C10          3.4020     0.0270     1.0710 ca         1 18O      -0.099500
     23 C11          4.4660    -0.8900     1.1400 ca         1 18O      -0.047000
     24 C12          5.4510    -0.9220     0.1260 ca         1 18O      -0.169200
     25 C13          5.3460    -0.0190    -0.9570 ca         1 18O      -0.047000
     26 C14          4.2800     0.8950    -1.0200 ca         1 18O      -0.099500
     27 H1          -3.0900     1.1070    -1.0540 h2         1 18O       0.107700
     28 HN1         -0.4270     0.6100     0.1790 hn         1 18O       0.332500
     29 H2          -1.5540    -1.4980    -0.4230 h1         1 18O       0.051700
     30 HN2          0.2940     3.8500     0.7910 hn         1 18O       0.352500
     31 HO2         -0.6980    -0.2560    -2.2350 ho         1 18O       0.515000
     32 H3          -4.1720    -1.0440    -1.9450 h1         1 18O       0.062700
     33 HO3         -2.5910    -2.7740    -2.5470 ho         1 18O       0.467000
     34 H4          -3.6370    -2.4160     0.7440 h1         1 18O       0.052700
     35 HO4         -5.3400    -3.1840    -0.7860 ho         1 18O       0.526000
     36 H5          -5.0900     0.2200     0.0970 h1         1 18O       0.072700
     37 H6          -6.0830    -0.9480     2.0540 h1         1 18O       0.035700
     38 H6A         -4.4800    -1.1550     2.7710 h1         1 18O       0.035700
     39 HO6         -5.5730     0.6320     3.7080 ho         1 18O       0.504000
     40 H8           2.1740     2.5690    -0.9830 h4         1 18O       0.002800
     41 H10          2.6590     0.0300     1.8660 ha         1 18O       0.132500
     42 H11          4.5170    -1.5720     1.9880 ha         1 18O       0.155500
     43 H13          6.0870    -0.0170    -1.7550 ha         1 18O       0.155500
     44 H14          4.2180     1.5820    -1.8620 ha         1 18O       0.132500
@<TRIPOS>BOND
     1     1     2 1   
     2     1     4 1   
     3     1    14 1   
     4     1    27 1   
     5     2    17 1   
     6     2    28 1   
     7     3    17 2   
     8     4     6 1   
     9     4     7 1   
    10     4    29 1   
    11     5     8 1   
    12     5    17 1   
    13     5    30 1   
    14     6    31 1   
    15     7     9 1   
    16     7    10 1   
    17     7    32 1   
    18     8    19 2   
    19     9    33 1   
    20    10    12 1   
    21    10    13 1   
    22    10    34 1   
    23    11    18 1   
    24    11    20 1   
    25    11    24 1   
    26    12    35 1   
    27    13    14 1   
    28    13    15 1   
    29    13    36 1   
    30    15    16 1   
    31    15    37 1   
    32    15    38 1   
    33    16    39 1   
    34    19    21 1   
    35    19    40 1   
    36    21    22 ar  
    37    21    26 ar  
    38    22    23 ar  
    39    22    41 1   
    40    23    24 ar  
    41    23    42 1   
    42    24    25 ar  
    43    25    26 ar  
    44    25    43 1   
    45    26    44 1   
@<TRIPOS>SUBSTRUCTURE
     1 18O         1 TEMP              0 ****  ****    0 ROOT
