@<TRIPOS>MOLECULE
18O
   44    45     1     0     0
SMALL
bcc


@<TRIPOS>ATOM
      1 C1          -2.6000     0.2900    -0.4700 c6         1 18O       0.276500
      2 N1          -1.2990     0.8740    -0.4770 ns         1 18O      -0.494900
      3 S1          -2.1960     3.3780    -0.8240 s          1 18O      -0.589400
      4 C2          -2.5870    -1.0460    -1.2180 c6         1 18O       0.077100
      5 N2           0.2550     2.5390    -0.5060 ns         1 18O      -0.292900
      6 O2          -2.2930    -0.8700    -2.5800 oh         1 18O      -0.589800
      7 C3          -3.9700    -1.6730    -1.1210 c6         1 18O       0.115100
      8 N3           1.2070     1.6240    -0.3140 n2         1 18O      -0.470300
      9 O3          -3.9980    -2.9730    -1.6580 oh         1 18O      -0.601800
     10 C4          -4.4190    -1.7680     0.3320 c6         1 18O       0.119100
     11 N4           6.6990    -1.6280     0.5560 no         1 18O       0.313200
     12 O4          -5.7550    -2.1970     0.4240 oh         1 18O      -0.591800
     13 C5          -4.3080    -0.3970     0.9990 c6         1 18O       0.156100
     14 O5          -2.9880     0.0910     0.8660 os         1 18O      -0.407600
     15 C6          -4.6280    -0.4640     2.4770 c3         1 18O       0.149400
     16 O6          -4.5850     0.8360     3.0140 oh         1 18O      -0.581800
     17 C7          -1.0520     2.1850    -0.5860 cs         1 18O       0.621400
     18 O7           6.4370    -2.7950     0.7340 o          1 18O      -0.204000
     19 C8           2.4200     2.0080    -0.2640 ce         1 18O       0.389800
     20 O8           7.8220    -1.1840     0.5430 o          1 18O      -0.204000
     21 C9           3.4960     1.0470    -0.0500 ca         1 18O      -0.086900
     22 C10          3.2500    -0.3160     0.1410 ca         1 18O      -0.117500
     23 C11          4.2940    -1.1940     0.3400 ca         1 18O      -0.065000
     24 C12          5.5960    -0.7050     0.3470 ca         1 18O      -0.169200
     25 C13          5.8680     0.6410     0.1590 ca         1 18O      -0.065000
     26 C14          4.8110     1.5110    -0.0380 ca         1 18O      -0.117500
     27 H1          -3.2850     0.9840    -0.9730 h2         1 18O       0.107700
     28 HN1         -0.5070     0.2760    -0.2720 hn         1 18O       0.332500
     29 H2          -1.8600    -1.7140    -0.7310 h1         1 18O       0.051700
     30 HN2          0.4810     3.5230    -0.6030 hn         1 18O       0.352500
     31 HO2         -1.3480    -0.7270    -2.6840 ho         1 18O       0.416000
     32 H3          -4.6790    -1.0150    -1.6510 h1         1 18O       0.062700
     33 HO3         -3.8950    -2.9120    -2.6130 ho         1 18O       0.428000
     34 H4          -3.7440    -2.4630     0.8590 h1         1 18O       0.052700
     35 HO4         -5.8300    -3.0370    -0.0420 ho         1 18O       0.427000
     36 H5          -5.0150     0.2930     0.5090 h1         1 18O       0.072700
     37 H6          -5.6170    -0.9180     2.5960 h1         1 18O       0.035700
     38 H6A         -3.9050    -1.1330     2.9660 h1         1 18O       0.035700
     39 HO6         -4.8740     0.7860     3.9290 ho         1 18O       0.405000
     40 H8           2.7010     3.0550    -0.3780 h4         1 18O       0.002800
     41 H10          2.2360    -0.6910     0.1370 ha         1 18O       0.150500
     42 H11          4.0910    -2.2450     0.4880 ha         1 18O       0.173500
     43 H13          6.8800     1.0170     0.1630 ha         1 18O       0.173500
     44 H14          5.0130     2.5640    -0.1850 ha         1 18O       0.150500
@<TRIPOS>BOND
     1     1     2 1   
     2     1     4 1   
     3     1    14 1   
     4     1    27 1   
     5     2    17 1   
     6     2    28 1   
     7     3    17 2   
     8     4     6 1   
     9     4     7 1   
    10     4    29 1   
    11     5     8 1   
    12     5    17 1   
    13     5    30 1   
    14     6    31 1   
    15     7     9 1   
    16     7    10 1   
    17     7    32 1   
    18     8    19 2   
    19     9    33 1   
    20    10    12 1   
    21    10    13 1   
    22    10    34 1   
    23    11    18 1   
    24    11    20 1   
    25    11    24 1   
    26    12    35 1   
    27    13    14 1   
    28    13    15 1   
    29    13    36 1   
    30    15    16 1   
    31    15    37 1   
    32    15    38 1   
    33    16    39 1   
    34    19    21 1   
    35    19    40 1   
    36    21    22 ar  
    37    21    26 ar  
    38    22    23 ar  
    39    22    41 1   
    40    23    24 ar  
    41    23    42 1   
    42    24    25 ar  
    43    25    26 ar  
    44    25    43 1   
    45    26    44 1   
@<TRIPOS>SUBSTRUCTURE
     1 18O         1 TEMP              0 ****  ****    0 ROOT
