@<TRIPOS>MOLECULE
18P
   44    46     1     0     0
SMALL
No Charge or Current Charge


@<TRIPOS>ATOM
      1 C            4.3130    -1.6810     0.2480 ca         1 18P       0.350900
      2 N            3.2590    -0.8280     0.1750 nb         1 18P      -0.675000
      3 O            2.4050     2.6640     0.6750 o          1 18P      -0.581100
      4 Cl           6.9350    -2.4320     0.7010 cl         1 18P      -0.169000
      5 N01         -4.8450    -0.6060     0.9750 n          1 18P      -0.405800
      6 C02         -3.8470    -1.7040     1.1220 c6         1 18P       0.014700
      7 C03         -3.2770    -2.1970    -0.2190 c2         1 18P       0.627200
      8 N03         -3.2070    -1.4890    -1.2790 n2         1 18P      -0.680900
      9 C04         -3.6930    -0.0730    -1.2240 c6         1 18P       0.137500
     10 N04          1.0850     0.8840     0.0150 ns         1 18P      -0.126000
     11 C05         -4.1460     0.2780    -2.6740 c3         1 18P      -0.056100
     12 C06         -4.9100     0.1280    -0.2290 c          1 18P       0.548000
     13 C07         -2.5640     0.9140    -0.7980 ca         1 18P      -0.063300
     14 C08         -2.8660     2.2840    -0.6300 ca         1 18P      -0.125000
     15 C09         -1.8740     3.1970    -0.2430 ca         1 18P      -0.088000
     16 C10         -0.5590     2.7630    -0.0190 ca         1 18P      -0.131000
     17 C11         -0.2250     1.4040    -0.1860 ca         1 18P      -0.025000
     18 C12         -1.2280     0.4950    -0.5750 ca         1 18P      -0.152000
     19 C13          2.2860     1.4690     0.4080 c          1 18P       0.514600
     20 C14          3.4620     0.4910     0.4840 ca         1 18P       0.285500
     21 C15          4.7390     0.9640     0.8710 ca         1 18P      -0.092000
     22 C16          5.8260     0.0740     0.9440 ca         1 18P      -0.075000
     23 C17          5.6080    -1.2750     0.6260 ca         1 18P       0.074000
     24 H            4.1130    -2.7210    -0.0050 h4         1 18P       0.038100
     25 H01         -5.5920    -0.9740     2.9290 h1         1 18P       0.043700
     26 H01A        -6.0250     0.6150     2.2420 h1         1 18P       0.043700
     27 H01B        -6.8350    -0.8660     1.6480 h1         1 18P       0.043700
     28 H02         -3.0190    -1.3440     1.7470 h1         1 18P       0.059200
     29 H02A        -4.3170    -2.5470     1.6480 h1         1 18P       0.059200
     30 HN02        -2.4430    -3.8090     0.6340 hn         1 18P       0.486000
     31 HN0A        -2.2700    -3.6840    -1.0590 hn         1 18P       0.486000
     32 HN04         1.1650    -0.1090    -0.1630 hn         1 18P       0.180000
     33 H05         -4.9580    -0.3790    -3.0070 hc         1 18P       0.050033
     34 H05A        -4.5050     1.3110    -2.7540 hc         1 18P       0.050033
     35 H05B        -3.3180     0.1680    -3.3840 hc         1 18P       0.050033
     36 H08         -3.8750     2.6530    -0.8000 ha         1 18P       0.133000
     37 H09         -2.1260     4.2480    -0.1170 ha         1 18P       0.117000
     38 H10          0.1810     3.5000     0.2780 ha         1 18P       0.146000
     39 H12         -0.9490    -0.5460    -0.7080 ha         1 18P       0.120000
     40 H15          4.8830     2.0140     1.1130 ha         1 18P       0.156000
     41 H16          6.8130     0.4220     1.2400 ha         1 18P       0.142000
     42 C01         -5.8870    -0.4490     2.0110 c3         1 18P       0.096300
     43 O01         -5.8560     0.8740    -0.4650 o          1 18P      -0.552000
     44 N02         -2.8370    -3.4840    -0.2430 nv         1 18P      -1.052200
@<TRIPOS>BOND
     1     1     2 ar  
     2     1    23 ar  
     3     1    24 1   
     4     2    20 ar  
     5     3    19 2   
     6     4    23 1   
     7     5     6 1   
     8     5    12 1   
     9     5    42 1   
    10     6     7 1   
    11     6    28 1   
    12     6    29 1   
    13     7     8 2   
    14     7    44 1   
    15     8     9 1   
    16     9    11 1   
    17     9    12 1   
    18     9    13 1   
    19    10    17 1   
    20    10    19 1   
    21    10    32 1   
    22    11    33 1   
    23    11    34 1   
    24    11    35 1   
    25    12    43 2   
    26    13    14 ar  
    27    13    18 ar  
    28    14    15 ar  
    29    14    36 1   
    30    15    16 ar  
    31    15    37 1   
    32    16    17 ar  
    33    16    38 1   
    34    17    18 ar  
    35    18    39 1   
    36    19    20 1   
    37    20    21 ar  
    38    21    22 ar  
    39    21    40 1   
    40    22    23 ar  
    41    22    41 1   
    42    25    42 1   
    43    26    42 1   
    44    27    42 1   
    45    30    44 1   
    46    31    44 1   
@<TRIPOS>SUBSTRUCTURE
     1 18P         1 TEMP              0 ****  ****    0 ROOT
