@<TRIPOS>MOLECULE
18P
   44    46     1     0     0
SMALL
bcc


@<TRIPOS>ATOM
      1 C            4.1250    -1.6600     0.2410 ca         1 18P       0.416200
      2 N            3.1270    -0.7990     0.1830 nb         1 18P      -0.675000
      3 O            2.3320     2.6180     0.5810 o          1 18P      -0.581100
      4 CL           6.6800    -2.4240     0.6200 cl         1 18P      -0.077400
      5 N01         -4.7850    -0.6180     0.8390 n          1 18P      -0.472800
      6 C02         -3.6910    -1.5180     1.1180 c6         1 18P       0.014700
      7 C03         -3.1610    -2.1020    -0.1630 c2         1 18P       0.627200
      8 N03         -3.1460    -1.4530    -1.2620 n2         1 18P      -0.680900
      9 C04         -3.6250    -0.0860    -1.2300 c6         1 18P       0.137500
     10 N04          1.0350     0.8170     0.0330 ns         1 18P      -0.452100
     11 C05         -4.0040     0.3010    -2.6590 c3         1 18P      -0.056100
     12 C06         -4.8430     0.0730    -0.3090 c          1 18P       0.690500
     13 C07         -2.5470     0.8850    -0.7290 ca         1 18P      -0.063300
     14 C08         -2.8650     2.2230    -0.4870 ca         1 18P      -0.143000
     15 C09         -1.8820     3.1010    -0.0650 ca         1 18P      -0.106000
     16 C10         -0.5700     2.6880     0.1240 ca         1 18P      -0.149000
     17 C11         -0.2430     1.3570    -0.1230 ca         1 18P       0.067600
     18 C12         -1.2380     0.4710    -0.5500 ca         1 18P      -0.170000
     19 C13          2.1910     1.4280     0.3580 c          1 18P       0.581600
     20 C14          3.3580     0.4850     0.4330 ca         1 18P       0.350800
     21 C15          4.6160     0.9700     0.7570 ca         1 18P      -0.175300
     22 C16          5.6730     0.0770     0.8220 ca         1 18P      -0.093000
     23 C17          5.4180    -1.2570     0.5590 ca         1 18P      -0.082900
     24 H            3.9030    -2.6990     0.0320 h4         1 18P       0.038100
     25 H01         -5.5250    -0.9280     2.7530 h1         1 18P       0.043700
     26 H01A        -6.0680     0.5710     2.0050 h1         1 18P       0.043700
     27 H01B        -6.7620    -0.9730     1.4930 h1         1 18P       0.043700
     28 H02         -2.8700    -1.0120     1.6420 h1         1 18P       0.059200
     29 H02A        -4.0460    -2.3110     1.7760 h1         1 18P       0.059200
     30 HN02        -2.5760    -3.8060     0.8120 hn         1 18P       0.430800
     31 HN0A        -2.1380    -3.7240    -0.8370 hn         1 18P       0.430800
     32 HN04         1.1210    -0.1810    -0.1210 hn         1 18P       0.346500
     33 H05         -4.7980    -0.3450    -3.0360 hc         1 18P       0.050033
     34 H05A        -4.3360     1.3340    -2.7340 hc         1 18P       0.050033
     35 H05B        -3.1320     0.1780    -3.3010 hc         1 18P       0.050033
     36 H08         -3.8770     2.5810    -0.6250 ha         1 18P       0.151000
     37 H09         -2.1370     4.1350     0.1280 ha         1 18P       0.135000
     38 H10          0.1710     3.3960     0.4570 ha         1 18P       0.164000
     39 H12         -0.9680    -0.5580    -0.7520 ha         1 18P       0.138000
     40 H15          4.7750     2.0200     0.9550 ha         1 18P       0.174000
     41 H16          6.6690     0.4150     1.0710 ha         1 18P       0.160000
     42 C01         -5.8460    -0.4780     1.8180 c3         1 18P       0.096300
     43 O01         -5.7940     0.7890    -0.5910 o          1 18P      -0.627500
     44 N02         -2.7010    -3.3670    -0.0830 nv         1 18P      -0.941800
@<TRIPOS>BOND
     1     1     2 ar  
     2     1    23 ar  
     3     1    24 1   
     4     2    20 ar  
     5     3    19 2   
     6     4    23 1   
     7     5     6 1   
     8     5    12 1   
     9     5    42 1   
    10     6     7 1   
    11     6    28 1   
    12     6    29 1   
    13     7     8 2   
    14     7    44 1   
    15     8     9 1   
    16     9    11 1   
    17     9    12 1   
    18     9    13 1   
    19    10    17 1   
    20    10    19 1   
    21    10    32 1   
    22    11    33 1   
    23    11    34 1   
    24    11    35 1   
    25    12    43 2   
    26    13    14 ar  
    27    13    18 ar  
    28    14    15 ar  
    29    14    36 1   
    30    15    16 ar  
    31    15    37 1   
    32    16    17 ar  
    33    16    38 1   
    34    17    18 ar  
    35    18    39 1   
    36    19    20 1   
    37    20    21 ar  
    38    21    22 ar  
    39    21    40 1   
    40    22    23 ar  
    41    22    41 1   
    42    25    42 1   
    43    26    42 1   
    44    27    42 1   
    45    30    44 1   
    46    31    44 1   
@<TRIPOS>SUBSTRUCTURE
     1 18P         1 TEMP              0 ****  ****    0 ROOT
