@<TRIPOS>MOLECULE
18R
   72    76     1     0     0
SMALL
No Charge or Current Charge


@<TRIPOS>ATOM
      1 C1           3.2450     0.5650     0.3940 c          1 18R       0.618700
      2 N1           4.4830     0.0370     0.0430 ns         1 18R      -0.141000
      3 O1           3.1040     1.4630     1.2170 o          1 18R      -0.576100
      4 N2          -7.0630    -1.5960     0.2980 n          1 18R      -0.409800
      5 C2          -8.2740    -1.3870    -0.4040 c          1 18R       0.610300
      6 O2          -9.3140    -1.9040    -0.0160 o          1 18R      -0.606100
      7 C3          -5.1420    -0.0770     0.7960 c6         1 18R       0.083300
      8 C4          -5.0920    -0.6300     2.2470 c6         1 18R      -0.088400
      9 C5          -6.4770    -1.1770     2.6840 c6         1 18R      -0.097400
     10 C6          -7.0290    -2.1980     1.6580 c6         1 18R       0.088000
     11 C7          -5.7160    -1.1530    -0.1620 c6         1 18R       0.095000
     12 N3          -2.2740     4.1230    -0.3540 nb         1 18R      -0.309000
     13 C8          -3.5360     4.0020     0.1230 ca         1 18R       0.200900
     14 N4          -4.1810     2.8470     0.4150 nb         1 18R      -0.234000
     15 C9          -1.5950     2.9820    -0.5250 ca         1 18R       0.458900
     16 N5          -3.8000     0.3750     0.3550 na         1 18R      -0.019100
     17 N6          -2.7340    -0.4590     0.0010 nc         1 18R      -0.521100
     18 C10         -1.7420     0.3860    -0.3030 cd         1 18R       0.433500
     19 C11         -2.1720     1.7590    -0.2000 ca         1 18R      -0.380900
     20 C12         -3.4670     1.7180     0.2340 ca         1 18R       0.162500
     21 C13         -0.3940    -0.0910    -0.6570 ca         1 18R      -0.107900
     22 C14          0.7470     0.4400    -0.0210 ca         1 18R      -0.058000
     23 C15          2.0450    -0.0450    -0.3120 ca         1 18R      -0.159600
     24 C16          2.1760    -1.0990    -1.2500 ca         1 18R      -0.081000
     25 C17          1.0390    -1.6540    -1.8590 ca         1 18R      -0.120000
     26 C18         -0.2400    -1.1640    -1.5560 ca         1 18R      -0.059000
     27 C19         -8.2620    -0.5970    -1.6770 ce         1 18R      -0.298200
     28 C20         -9.1290    -0.7990    -2.7010 c2         1 18R      -0.234000
     29 C21          8.2060    -0.2240     0.2350 ca         1 18R      -0.035300
     30 C22          6.8490    -0.4280    -0.1110 ca         1 18R      -0.168000
     31 C23          8.4980     0.7760     1.1940 ca         1 18R      -0.132000
     32 C24          9.3070    -1.0900    -0.4380 c3         1 18R      -0.000700
     33 C25          5.8110     0.3260     0.4660 ca         1 18R      -0.023000
     34 C26          7.4710     1.5340     1.7760 ca         1 18R      -0.087000
     35 C27          9.2630    -0.8730    -1.9750 c3         1 18R      -0.082433
     36 C28         10.7410    -0.7410     0.0520 c3         1 18R      -0.082433
     37 C29          9.0470    -2.5880    -0.1210 c3         1 18R      -0.082433
     38 C30          6.1330     1.3150     1.4170 ca         1 18R      -0.131000
     39 H1           4.4340    -0.6980    -0.6490 hn         1 18R       0.151000
     40 H2          -5.8250     0.7830     0.7760 h1         1 18R       0.094700
     41 H3          -4.3450    -1.4330     2.3140 hc         1 18R       0.060200
     42 H4          -4.7650     0.1590     2.9390 hc         1 18R       0.060200
     43 H5          -6.4010    -1.6460     3.6750 hc         1 18R       0.055200
     44 H6          -7.1870    -0.3440     2.7860 hc         1 18R       0.055200
     45 H7          -8.0290    -2.5260     1.9730 h1         1 18R       0.064200
     46 H8          -6.3860    -3.0900     1.6410 h1         1 18R       0.064200
     47 H9          -5.0460    -2.0250    -0.1620 h1         1 18R       0.064200
     48 H10         -5.7240    -0.7790    -1.1920 h1         1 18R       0.064200
     49 H11         -4.0970     4.9240     0.2670 h5         1 18R       0.049100
     50 H12         -0.1320     4.0130    -1.4810 hn         1 18R       0.503000
     51 H13          0.0640     2.2970    -1.4920 hn         1 18R       0.503000
     52 H14          0.6180     1.2310     0.7170 ha         1 18R       0.146000
     53 H15          3.1470    -1.5110    -1.5110 ha         1 18R       0.115000
     54 H16          1.1490    -2.4740    -2.5660 ha         1 18R       0.122000
     55 H17         -1.1130    -1.6100    -2.0280 ha         1 18R       0.130000
     56 H18         -7.4650     0.1320    -1.7950 ha         1 18R       0.181000
     57 H19         -9.0680    -0.2240    -3.6270 ha         1 18R       0.175500
     58 H20         -9.9260    -1.5430    -2.6450 ha         1 18R       0.175500
     59 H21          6.5900    -1.1880    -0.8440 ha         1 18R       0.105000
     60 H22          9.5160     0.9850     1.5060 ha         1 18R       0.116000
     61 H23          7.7140     2.2990     2.5110 ha         1 18R       0.115000
     62 H24          9.4070     0.1860    -2.2190 hc         1 18R       0.035478
     63 H25         10.0530    -1.4460    -2.4750 hc         1 18R       0.035478
     64 H26          8.3050    -1.1910    -2.4020 hc         1 18R       0.035478
     65 H27         10.9930     0.3030    -0.1710 hc         1 18R       0.035478
     66 H28         10.8410    -0.9030     1.1330 hc         1 18R       0.035478
     67 H29         11.4890    -1.3720    -0.4450 hc         1 18R       0.035478
     68 H30          9.8290    -3.2230    -0.5550 hc         1 18R       0.035478
     69 H31          9.0360    -2.7570     0.9630 hc         1 18R       0.035478
     70 H32          8.0860    -2.9270    -0.5250 hc         1 18R       0.035478
     71 H33          5.3680     1.9230     1.8900 ha         1 18R       0.148000
     72 N7          -0.3680     3.1130    -1.0720 nv         1 18R      -1.062900
@<TRIPOS>BOND
     1     1     2 1   
     2     1     3 2   
     3     1    23 1   
     4     2    33 1   
     5     2    39 1   
     6     4     5 1   
     7     4    10 1   
     8     4    11 1   
     9     5     6 2   
    10     5    27 1   
    11     7     8 1   
    12     7    11 1   
    13     7    16 1   
    14     7    40 1   
    15     8     9 1   
    16     8    41 1   
    17     8    42 1   
    18     9    10 1   
    19     9    43 1   
    20     9    44 1   
    21    10    45 1   
    22    10    46 1   
    23    11    47 1   
    24    11    48 1   
    25    12    13 ar  
    26    12    15 ar  
    27    13    14 ar  
    28    13    49 1   
    29    14    20 ar  
    30    15    19 ar  
    31    15    72 1   
    32    16    17 1   
    33    16    20 1   
    34    17    18 2   
    35    18    19 1   
    36    18    21 1   
    37    19    20 ar  
    38    21    22 ar  
    39    21    26 ar  
    40    22    23 ar  
    41    22    52 1   
    42    23    24 ar  
    43    24    25 ar  
    44    24    53 1   
    45    25    26 ar  
    46    25    54 1   
    47    26    55 1   
    48    27    28 2   
    49    27    56 1   
    50    28    57 1   
    51    28    58 1   
    52    29    30 ar  
    53    29    31 ar  
    54    29    32 1   
    55    30    33 ar  
    56    30    59 1   
    57    31    34 ar  
    58    31    60 1   
    59    32    35 1   
    60    32    36 1   
    61    32    37 1   
    62    33    38 ar  
    63    34    38 ar  
    64    34    61 1   
    65    35    62 1   
    66    35    63 1   
    67    35    64 1   
    68    36    65 1   
    69    36    66 1   
    70    36    67 1   
    71    37    68 1   
    72    37    69 1   
    73    37    70 1   
    74    38    71 1   
    75    50    72 1   
    76    51    72 1   
@<TRIPOS>SUBSTRUCTURE
     1 18R         1 TEMP              0 ****  ****    0 ROOT
