@<TRIPOS>MOLECULE
18R
   72    76     1     0     0
SMALL
abcg2


@<TRIPOS>ATOM
      1 C1           3.1960     0.0300     0.8200 c          1 18R       0.618700
      2 N1           4.3900    -0.2800     0.2630 ns         1 18R      -0.141000
      3 O1           3.0580     0.7790     1.7720 o          1 18R      -0.576100
      4 N2          -6.9380    -1.4280     0.1340 n          1 18R      -0.409800
      5 C2          -8.1000    -1.1600    -0.5100 c          1 18R       0.610300
      6 O2          -9.1800    -1.5440    -0.0770 o          1 18R      -0.606100
      7 C3          -5.0620     0.0220     0.6890 c6         1 18R       0.083300
      8 C4          -5.0670    -0.5100     2.1190 c6         1 18R      -0.088400
      9 C5          -6.4490    -1.0360     2.4910 c6         1 18R      -0.097400
     10 C6          -6.9520    -2.0370     1.4570 c6         1 18R       0.088000
     11 C7          -5.6090    -1.0300    -0.2820 c6         1 18R       0.095000
     12 N3          -2.0760     3.9150    -0.7410 nb         1 18R      -0.309000
     13 C8          -3.3620     3.8520    -0.3990 ca         1 18R       0.200900
     14 N4          -4.0650     2.7950    -0.0470 nb         1 18R      -0.234000
     15 C9          -1.3470     2.7970    -0.7310 ca         1 18R       0.458900
     16 N5          -3.7390     0.4400     0.2810 na         1 18R      -0.019100
     17 N6          -2.7320    -0.4410     0.2160 nc         1 18R      -0.521100
     18 C10         -1.6510     0.2160    -0.1330 cd         1 18R       0.433500
     19 C11         -1.9600     1.5930    -0.3110 ca         1 18R      -0.380900
     20 C12         -3.3240     1.6850    -0.0220 ca         1 18R       0.162500
     21 C13         -0.3700    -0.4840    -0.2690 ca         1 18R      -0.107900
     22 C14          0.7850     0.0480     0.2930 ca         1 18R      -0.058000
     23 C15          2.0080    -0.6070     0.1700 ca         1 18R      -0.159600
     24 C16          2.0620    -1.8300    -0.4930 ca         1 18R      -0.081000
     25 C17          0.9070    -2.3800    -1.0310 ca         1 18R      -0.120000
     26 C18         -0.3010    -1.7120    -0.9280 ca         1 18R      -0.059000
     27 C19         -8.0380    -0.3810    -1.7790 ce         1 18R      -0.298200
     28 C20         -9.1030    -0.2900    -2.5680 c2         1 18R      -0.234000
     29 C21          8.0620    -0.1020     0.1700 ca         1 18R      -0.035300
     30 C22          6.7310    -0.4100    -0.1000 ca         1 18R      -0.168000
     31 C23          8.3230     0.7610     1.2320 ca         1 18R      -0.132000
     32 C24          9.1620    -0.7160    -0.6910 c3         1 18R      -0.000700
     33 C25          5.6780     0.1110     0.6500 ca         1 18R      -0.023000
     34 C26          7.2800     1.2810     1.9850 ca         1 18R      -0.087000
     35 C27          8.9460    -0.3150    -2.1560 c3         1 18R      -0.082433
     36 C28         10.5550    -0.2510    -0.2660 c3         1 18R      -0.082433
     37 C29          9.1100    -2.2450    -0.5680 c3         1 18R      -0.082433
     38 C30          5.9570     0.9710     1.7140 ca         1 18R      -0.131000
     39 H1           4.3660    -0.8440    -0.5730 hn         1 18R       0.151000
     40 H2          -5.6900     0.9130     0.6270 h1         1 18R       0.094700
     41 H3          -4.3350    -1.3180     2.2010 hc         1 18R       0.060200
     42 H4          -4.7560     0.2790     2.8070 hc         1 18R       0.060200
     43 H5          -6.4130    -1.5150     3.4710 hc         1 18R       0.055200
     44 H6          -7.1620    -0.2100     2.5650 hc         1 18R       0.055200
     45 H7          -7.9560    -2.3740     1.6930 h1         1 18R       0.064200
     46 H8          -6.3010    -2.9170     1.4400 h1         1 18R       0.064200
     47 H9          -4.9630    -1.9130    -0.2670 h1         1 18R       0.064200
     48 H10         -5.5970    -0.6550    -1.3010 h1         1 18R       0.064200
     49 H11         -3.8950     4.7970    -0.4240 h5         1 18R       0.049100
     50 H12          0.2730     3.7540    -1.4770 hn         1 18R       0.503000
     51 H13          0.4840     2.0600    -1.2800 hn         1 18R       0.503000
     52 H14          0.7360     0.9710     0.8590 ha         1 18R       0.146000
     53 H15          2.9870    -2.3870    -0.5730 ha         1 18R       0.115000
     54 H16          0.9540    -3.3350    -1.5360 ha         1 18R       0.122000
     55 H17         -1.1950    -2.1380    -1.3640 ha         1 18R       0.130000
     56 H18         -7.1320     0.1340    -2.0650 ha         1 18R       0.181000
     57 H19         -9.0660     0.2830    -3.4840 ha         1 18R       0.175500
     58 H20        -10.0370    -0.7820    -2.3330 ha         1 18R       0.175500
     59 H21          6.4950    -1.0800    -0.9200 ha         1 18R       0.105000
     60 H22          9.3360     1.0390     1.4850 ha         1 18R       0.116000
     61 H23          7.5000     1.9490     2.8080 ha         1 18R       0.115000
     62 H24          8.9720     0.7690    -2.2750 hc         1 18R       0.035478
     63 H25          9.7340    -0.7390    -2.7830 hc         1 18R       0.035478
     64 H26          7.9920    -0.6720    -2.5450 hc         1 18R       0.035478
     65 H27         10.6710     0.8310    -0.3530 hc         1 18R       0.035478
     66 H28         10.7860    -0.5360     0.7620 hc         1 18R       0.035478
     67 H29         11.3050    -0.7140    -0.9080 hc         1 18R       0.035478
     68 H30          9.8860    -2.6990    -1.1880 hc         1 18R       0.035478
     69 H31          9.2780    -2.5640     0.4630 hc         1 18R       0.035478
     70 H32          8.1500    -2.6540    -0.8900 hc         1 18R       0.035478
     71 H33          5.1730     1.3950     2.3180 ha         1 18R       0.148000
     72 N7          -0.0720     2.8810    -1.1150 nv         1 18R      -1.062900
@<TRIPOS>BOND
     1     1     2 1   
     2     1     3 2   
     3     1    23 1   
     4     2    33 1   
     5     2    39 1   
     6     4     5 1   
     7     4    10 1   
     8     4    11 1   
     9     5     6 2   
    10     5    27 1   
    11     7     8 1   
    12     7    11 1   
    13     7    16 1   
    14     7    40 1   
    15     8     9 1   
    16     8    41 1   
    17     8    42 1   
    18     9    10 1   
    19     9    43 1   
    20     9    44 1   
    21    10    45 1   
    22    10    46 1   
    23    11    47 1   
    24    11    48 1   
    25    12    13 ar  
    26    12    15 ar  
    27    13    14 ar  
    28    13    49 1   
    29    14    20 ar  
    30    15    19 ar  
    31    15    72 1   
    32    16    17 1   
    33    16    20 1   
    34    17    18 2   
    35    18    19 1   
    36    18    21 1   
    37    19    20 ar  
    38    21    22 ar  
    39    21    26 ar  
    40    22    23 ar  
    41    22    52 1   
    42    23    24 ar  
    43    24    25 ar  
    44    24    53 1   
    45    25    26 ar  
    46    25    54 1   
    47    26    55 1   
    48    27    28 2   
    49    27    56 1   
    50    28    57 1   
    51    28    58 1   
    52    29    30 ar  
    53    29    31 ar  
    54    29    32 1   
    55    30    33 ar  
    56    30    59 1   
    57    31    34 ar  
    58    31    60 1   
    59    32    35 1   
    60    32    36 1   
    61    32    37 1   
    62    33    38 ar  
    63    34    38 ar  
    64    34    61 1   
    65    35    62 1   
    66    35    63 1   
    67    35    64 1   
    68    36    65 1   
    69    36    66 1   
    70    36    67 1   
    71    37    68 1   
    72    37    69 1   
    73    37    70 1   
    74    38    71 1   
    75    50    72 1   
    76    51    72 1   
@<TRIPOS>SUBSTRUCTURE
     1 18R         1 TEMP              0 ****  ****    0 ROOT
