@<TRIPOS>MOLECULE
18S
   45    46     1     0     0
SMALL
abcg2


@<TRIPOS>ATOM
      1 C1          -1.9360    -0.2980     0.5030 c6         1 18S       0.299700
      2 N1          -0.5770    -0.7260     0.5510 ns         1 18S      -0.432900
      3 S1          -1.1630    -3.2450     1.2770 s          1 18S      -0.625400
      4 C2          -2.1010     1.0480     1.2120 c6         1 18S       0.100300
      5 N2           1.1650    -2.1680     0.7890 ns         1 18S      -0.228900
      6 O2          -1.8120     0.9420     2.5820 oh         1 18S      -0.712000
      7 C3          -3.5490     1.4960     1.0750 c6         1 18S       0.139300
      8 N3           2.0020    -1.1850     0.4160 n2         1 18S      -0.490300
      9 O3          -3.7520     2.7930     1.5800 oh         1 18S      -0.666000
     10 C4          -3.9730     1.5040    -0.3900 c6         1 18S       0.142300
     11 O4          -5.3500     1.7510    -0.5220 oh         1 18S      -0.714000
     12 C5          -3.6740     0.1430    -1.0250 c6         1 18S       0.179300
     13 O5          -2.3110    -0.1820    -0.8470 os         1 18S      -0.455000
     14 C6          -3.9550     0.1490    -2.5130 c3         1 18S       0.172600
     15 O6          -3.7550    -1.1480    -3.0200 oh         1 18S      -0.704000
     16 C7          -0.1690    -1.9680     0.8440 cs         1 18S       0.497400
     17 C8           3.2510    -1.4350     0.4130 ce         1 18S       0.420800
     18 C9           4.2300    -0.4380     0.0020 ca         1 18S      -0.147900
     19 C10          5.5830    -0.7600     0.0670 ca         1 18S      -0.075500
     20 C11          6.5500     0.1560    -0.3200 ca         1 18S      -0.117000
     21 C12          6.1940     1.4170    -0.7860 ca         1 18S      -0.053300
     22 C13          4.8340     1.7370    -0.8460 ca         1 18S      -0.117000
     23 C14          3.8650     0.8310    -0.4600 ca         1 18S      -0.075500
     24 C15          7.2300     2.4010    -1.2400 c3         1 18S      -0.051800
     25 H1          -2.5430    -1.0550     1.0140 h2         1 18S       0.109700
     26 HN1          0.1410    -0.0680     0.2670 hn         1 18S       0.335500
     27 H2          -1.4530     1.7900     0.7200 h1         1 18S       0.050700
     28 HN2          1.5130    -3.0880     1.0370 hn         1 18S       0.349500
     29 HO2         -0.8580     0.9100     2.7000 ho         1 18S       0.516000
     30 H3          -4.1830     0.7670     1.6040 h1         1 18S       0.062700
     31 HO3         -3.6570     2.7680     2.5370 ho         1 18S       0.466000
     32 H4          -3.3800     2.2680    -0.9180 h1         1 18S       0.050700
     33 HO4         -5.5400     2.6150    -0.1420 ho         1 18S       0.525000
     34 H5          -4.3090    -0.6180    -0.5420 h1         1 18S       0.072700
     35 H6          -4.9830     0.4920    -2.6680 h1         1 18S       0.034700
     36 H6A         -3.2940     0.8840    -2.9930 h1         1 18S       0.034700
     37 HO6         -3.9740    -1.1370    -3.9550 ho         1 18S       0.503000
     38 H8           3.6400    -2.4090     0.7160 h4         1 18S      -0.006200
     39 H10          5.8870    -1.7360     0.4280 ha         1 18S       0.118000
     40 H11          7.5960    -0.1170    -0.2560 ha         1 18S       0.116500
     41 H13          4.5320     2.7140    -1.2040 ha         1 18S       0.116500
     42 H14          2.8200     1.1050    -0.5210 ha         1 18S       0.118000
     43 H15          7.2780     2.4360    -2.3300 hc         1 18S       0.046700
     44 H15A         7.0010     3.4100    -0.8970 hc         1 18S       0.046700
     45 H15B         8.2220     2.1350    -0.8770 hc         1 18S       0.046700
@<TRIPOS>BOND
     1     1     2 1   
     2     1     4 1   
     3     1    13 1   
     4     1    25 1   
     5     2    16 1   
     6     2    26 1   
     7     3    16 2   
     8     4     6 1   
     9     4     7 1   
    10     4    27 1   
    11     5     8 1   
    12     5    16 1   
    13     5    28 1   
    14     6    29 1   
    15     7     9 1   
    16     7    10 1   
    17     7    30 1   
    18     8    17 2   
    19     9    31 1   
    20    10    11 1   
    21    10    12 1   
    22    10    32 1   
    23    11    33 1   
    24    12    13 1   
    25    12    14 1   
    26    12    34 1   
    27    14    15 1   
    28    14    35 1   
    29    14    36 1   
    30    15    37 1   
    31    17    18 1   
    32    17    38 1   
    33    18    19 ar  
    34    18    23 ar  
    35    19    20 ar  
    36    19    39 1   
    37    20    21 ar  
    38    20    40 1   
    39    21    22 ar  
    40    21    24 1   
    41    22    23 ar  
    42    22    41 1   
    43    23    42 1   
    44    24    43 1   
    45    24    44 1   
    46    24    45 1   
@<TRIPOS>SUBSTRUCTURE
     1 18S         1 TEMP              0 ****  ****    0 ROOT
