@<TRIPOS>MOLECULE
18S
   45    46     1     0     0
SMALL
No Charge or Current Charge


@<TRIPOS>ATOM
      1 C1          -1.7510    -0.4440     0.4380 c6         1 18S       0.299700
      2 N1          -0.4620    -1.0640     0.1550 ns         1 18S      -0.432900
      3 S1          -1.2930    -3.5940     0.4970 s          1 18S      -0.625400
      4 C2          -1.5810     1.0180     0.9760 c6         1 18S       0.100300
      5 N2           1.0800    -2.6850    -0.3500 ns         1 18S      -0.228900
      6 O2          -0.8960     1.0650     2.2510 oh         1 18S      -0.712000
      7 C3          -2.9860     1.6690     1.1170 c6         1 18S       0.139300
      8 N3           2.0450    -1.7380    -0.6760 n2         1 18S      -0.490300
      9 O3          -2.8590     3.0260     1.5760 oh         1 18S      -0.666000
     10 C4          -3.7530     1.6110    -0.2350 c6         1 18S       0.142300
     11 O4          -5.0640     2.1870    -0.0730 oh         1 18S      -0.714000
     12 C5          -3.8110     0.1310    -0.7290 c6         1 18S       0.179300
     13 O5          -2.4630    -0.4080    -0.8150 os         1 18S      -0.455000
     14 C6          -4.4880     0.0010    -2.1350 c3         1 18S       0.172600
     15 O6          -4.5140    -1.3510    -2.6380 oh         1 18S      -0.704000
     16 C7          -0.1990    -2.4000     0.0770 cs         1 18S       0.497400
     17 C8           2.9990    -1.4830     0.1700 ce         1 18S       0.420800
     18 C9           4.0080    -0.4070    -0.0750 ca         1 18S      -0.147900
     19 C10          5.0020    -0.1600     0.8940 ca         1 18S      -0.075500
     20 C11          5.9610     0.8480     0.6920 ca         1 18S      -0.117000
     21 C12          5.9420     1.6240    -0.4810 ca         1 18S      -0.053300
     22 C13          4.9510     1.3840    -1.4490 ca         1 18S      -0.117000
     23 C14          3.9900     0.3770    -1.2500 ca         1 18S      -0.075500
     24 C15          6.9780     2.7160    -0.6960 c3         1 18S      -0.051800
     25 H1          -2.3020    -1.0530     1.1740 h2         1 18S       0.109700
     26 HN1          0.2830    -0.4690    -0.1870 hn         1 18S       0.335500
     27 H2          -1.0110     1.5900     0.2270 h1         1 18S       0.050700
     28 HN2          1.2860    -3.6800    -0.4310 hn         1 18S       0.349500
     29 HO2         -0.0190     0.6270     2.1390 ho         1 18S       0.516000
     30 H3          -3.5540     1.0820     1.8570 h1         1 18S       0.062700
     31 HO3         -2.1190     2.9970     2.2280 ho         1 18S       0.466000
     32 H4          -3.1840     2.1940    -0.9760 h1         1 18S       0.050700
     33 HO4         -4.9230     2.9750     0.5070 ho         1 18S       0.525000
     34 H5          -4.3910    -0.4710    -0.0150 h1         1 18S       0.072700
     35 H6          -5.5130     0.3890    -2.0590 h1         1 18S       0.034700
     36 H6A         -3.9470     0.6530    -2.8340 h1         1 18S       0.034700
     37 HO6         -4.8930    -1.3120    -3.5470 ho         1 18S       0.503000
     38 H8           3.0840    -2.0340     1.1100 h4         1 18S      -0.006200
     39 H10          5.0330    -0.7500     1.8080 ha         1 18S       0.118000
     40 H11          6.7190     1.0260     1.4510 ha         1 18S       0.116500
     41 H13          4.9220     1.9790    -2.3590 ha         1 18S       0.116500
     42 H14          3.2340     0.2100    -2.0150 ha         1 18S       0.118000
     43 H15          7.1900     2.8620    -1.7620 hc         1 18S       0.046700
     44 H15A         6.6270     3.6720    -0.2900 hc         1 18S       0.046700
     45 H15B         7.9270     2.4710    -0.2030 hc         1 18S       0.046700
@<TRIPOS>BOND
     1     1     2 1   
     2     1     4 1   
     3     1    13 1   
     4     1    25 1   
     5     2    16 1   
     6     2    26 1   
     7     3    16 2   
     8     4     6 1   
     9     4     7 1   
    10     4    27 1   
    11     5     8 1   
    12     5    16 1   
    13     5    28 1   
    14     6    29 1   
    15     7     9 1   
    16     7    10 1   
    17     7    30 1   
    18     8    17 2   
    19     9    31 1   
    20    10    11 1   
    21    10    12 1   
    22    10    32 1   
    23    11    33 1   
    24    12    13 1   
    25    12    14 1   
    26    12    34 1   
    27    14    15 1   
    28    14    35 1   
    29    14    36 1   
    30    15    37 1   
    31    17    18 1   
    32    17    38 1   
    33    18    19 ar  
    34    18    23 ar  
    35    19    20 ar  
    36    19    39 1   
    37    20    21 ar  
    38    20    40 1   
    39    21    22 ar  
    40    21    24 1   
    41    22    23 ar  
    42    22    41 1   
    43    23    42 1   
    44    24    43 1   
    45    24    44 1   
    46    24    45 1   
@<TRIPOS>SUBSTRUCTURE
     1 18S         1 TEMP              0 ****  ****    0 ROOT
