@<TRIPOS>MOLECULE
18T
   59    61     1     0     0
SMALL
abcg2


@<TRIPOS>ATOM
      1 C2           5.3370    -0.4650    -1.3560 c6         1 18T       0.110300
      2 C3           4.9670    -1.9010    -1.7090 c6         1 18T       0.173300
      3 C5           4.9660    -2.3700     0.7500 c6         1 18T       0.138300
      4 C6           5.5510    -3.1820     1.8870 c3         1 18T      -0.083100
      5 O1           3.4530    -0.0600     0.0140 os         1 18T      -0.582400
      6 O2           4.7950     0.3770    -2.3460 oh         1 18T      -0.703000
      7 C41         -5.9940    -2.7970     0.6520 c          1 18T       0.597200
      8 C51         -5.6990    -2.9080    -0.7620 cc         1 18T      -0.297400
      9 C5A         -5.9410    -4.2100    -1.4530 c3         1 18T      -0.007900
     10 C61         -5.2150    -1.8220    -1.3890 cd         1 18T       0.023600
     11 N31         -5.7310    -1.5510     1.1920 ns         1 18T      -0.468500
     12 C21         -5.2390    -0.4390     0.5580 c          1 18T       0.623000
     13 O21         -5.0540     0.6050     1.1460 o          1 18T      -0.532000
     14 N11         -4.9920    -0.6120    -0.7840 n          1 18T      -0.311000
     15 C1,         -4.4270     0.4840    -1.5680 c5         1 18T       0.347700
     16 O4,         -3.1430     0.7720    -1.0970 os         1 18T      -0.400000
     17 C2,         -5.2240     1.7920    -1.5700 c5         1 18T      -0.154400
     18 C3,         -4.3300     2.8000    -0.8480 c5         1 18T       0.126300
     19 O3,         -4.3010     4.0810    -1.4260 oh         1 18T      -0.703000
     20 C4,         -2.9420     2.1690    -0.9750 c5         1 18T       0.166300
     21 C5,         -2.0580     2.4590     0.2130 c3         1 18T       0.231600
     22 O5,         -0.7860     1.8820     0.0070 os         1 18T      -0.567400
     23 P            0.4560     2.4360     0.9350 p5         1 18T       1.459800
     24 O1P          0.8630     3.7950     0.4570 o          1 18T      -0.853500
     25 O2P          0.1560     2.2030     2.3810 o          1 18T      -0.853500
     26 OPP          1.5320     1.3360     0.3720 os         1 18T      -0.693800
     27 P2           2.5920     0.4970     1.3140 p5         1 18T       1.469800
     28 O3P          1.9000    -0.6630     1.9490 o          1 18T      -0.845000
     29 O4P          3.4360     1.4430     2.1070 o          1 18T      -0.845000
     30 C1           4.8450    -0.0990     0.0450 c6         1 18T       0.427300
     31 O3           5.5460    -2.2850    -2.9330 oh         1 18T      -0.685000
     32 C4           5.4770    -2.8300    -0.6200 c6         1 18T       0.147300
     33 O4           5.0380    -4.1360    -0.9130 oh         1 18T      -0.709000
     34 O5           5.3320    -1.0140     0.9800 os         1 18T      -0.484000
     35 H1           6.4340    -0.3950    -1.3390 h1         1 18T       0.006700
     36 H2           3.8700    -1.9860    -1.7560 h1         1 18T       0.094700
     37 H3           3.8730    -2.4720     0.7720 h1         1 18T       0.103700
     38 H4           6.6410    -3.1230     1.9010 hc         1 18T       0.029700
     39 H5           5.1750    -2.8270     2.8470 hc         1 18T       0.029700
     40 H6           5.2680    -4.2310     1.8010 hc         1 18T       0.029700
     41 H7           5.2840     1.2050    -2.3500 ho         1 18T       0.496000
     42 H8          -6.9900    -4.5020    -1.3920 hc         1 18T       0.036033
     43 H9          -5.6720    -4.1450    -2.5060 hc         1 18T       0.036033
     44 H10         -5.3550    -5.0130    -1.0050 hc         1 18T       0.036033
     45 H11         -4.9740    -1.8540    -2.4440 h4         1 18T       0.198000
     46 H12         -5.9210    -1.4330     2.1800 hn         1 18T       0.338500
     47 H13         -4.3740     0.0860    -2.5840 h2         1 18T       0.044700
     48 H14         -5.3590     2.1140    -2.6040 hc         1 18T       0.050700
     49 H15         -6.2140     1.6890    -1.1280 hc         1 18T       0.050700
     50 H16         -4.6140     2.8610     0.2070 h1         1 18T       0.071700
     51 H17         -5.0750     4.5640    -1.1250 ho         1 18T       0.488000
     52 H18         -2.4670     2.5560    -1.8880 h1         1 18T       0.071700
     53 H19         -1.9980     3.5480     0.3260 h1         1 18T       0.029200
     54 H20         -2.5270     2.0590     1.1190 h1         1 18T       0.029200
     55 H23          5.2580     0.8700     0.3470 h2         1 18T       0.080700
     56 H24          5.2770    -1.6410    -3.5970 ho         1 18T       0.447000
     57 H25          6.5770    -2.7760    -0.6120 h1         1 18T       0.018700
     58 H26          5.6100    -4.7600    -0.4590 ho         1 18T       0.483000
     59 O41         -6.4350    -3.6940     1.3480 o          1 18T      -0.563000
@<TRIPOS>BOND
     1     1     2 1   
     2     1     6 1   
     3     1    30 1   
     4     1    35 1   
     5     2    31 1   
     6     2    32 1   
     7     2    36 1   
     8     3     4 1   
     9     3    32 1   
    10     3    34 1   
    11     3    37 1   
    12     4    38 1   
    13     4    39 1   
    14     4    40 1   
    15     5    27 1   
    16     5    30 1   
    17     6    41 1   
    18     7     8 1   
    19     7    11 1   
    20     7    59 2   
    21     8     9 1   
    22     8    10 2   
    23     9    42 1   
    24     9    43 1   
    25     9    44 1   
    26    10    14 1   
    27    10    45 1   
    28    11    12 1   
    29    11    46 1   
    30    12    13 2   
    31    12    14 1   
    32    14    15 1   
    33    15    16 1   
    34    15    17 1   
    35    15    47 1   
    36    16    20 1   
    37    17    18 1   
    38    17    48 1   
    39    17    49 1   
    40    18    19 1   
    41    18    20 1   
    42    18    50 1   
    43    19    51 1   
    44    20    21 1   
    45    20    52 1   
    46    21    22 1   
    47    21    53 1   
    48    21    54 1   
    49    22    23 1   
    50    23    24 1   
    51    23    25 1   
    52    23    26 1   
    53    26    27 1   
    54    27    28 1   
    55    27    29 1   
    56    30    34 1   
    57    30    55 1   
    58    31    56 1   
    59    32    33 1   
    60    32    57 1   
    61    33    58 1   
@<TRIPOS>SUBSTRUCTURE
     1 18T         1 TEMP              0 ****  ****    0 ROOT
