@<TRIPOS>MOLECULE
18T
   59    61     1     0     0
SMALL
No Charge or Current Charge


@<TRIPOS>ATOM
      1 C2           3.8620    -0.4680    -0.9840 c6         1 18T       0.110300
      2 C3           3.7350    -2.0110    -1.1270 c6         1 18T       0.173300
      3 C5           5.1290    -2.2620     0.9830 c6         1 18T       0.138300
      4 C6           6.4150    -2.8110     1.6530 c3         1 18T      -0.083100
      5 O1           2.9400    -0.4230     1.3590 os         1 18T      -0.582400
      6 O2           2.7280     0.1760    -1.6100 oh         1 18T      -0.703000
      7 C41         -5.6960    -3.0720     0.1850 c          1 18T       0.597200
      8 C51         -5.6310    -2.8900    -1.2800 cc         1 18T      -0.297400
      9 C5A         -6.2820    -3.9690    -2.1140 c3         1 18T      -0.007900
     10 C61         -4.9980    -1.7840    -1.8050 cd         1 18T       0.023600
     11 N31         -5.1060    -2.0790     0.8950 ns         1 18T      -0.468500
     12 C21         -4.4770    -0.9660     0.4350 c          1 18T       0.623000
     13 O21         -4.0350    -0.1530     1.2310 o          1 18T      -0.532000
     14 N11         -4.4160    -0.8310    -0.9700 n          1 18T      -0.311000
     15 C1,         -3.6900     0.3050    -1.5980 c5         1 18T       0.347700
     16 O4,         -2.4810     0.6660    -0.9110 os         1 18T      -0.400000
     17 C2,         -4.6260     1.5550    -1.5700 c5         1 18T      -0.154400
     18 C3,         -3.8200     2.5560    -0.6960 c5         1 18T       0.126300
     19 O3,         -4.0860     3.9130    -1.0620 oh         1 18T      -0.703000
     20 C4,         -2.3660     2.1000    -1.0150 c5         1 18T       0.166300
     21 C5,         -1.2900     2.6430    -0.0400 c3         1 18T       0.231600
     22 O5,          0.0070     2.3990    -0.6010 os         1 18T      -0.567400
     23 P            1.2940     2.5130     0.3550 p5         1 18T       1.459800
     24 O1P          2.5190     2.4940    -0.4980 o          1 18T      -0.853500
     25 O2P          1.1730     3.7190     1.2250 o          1 18T      -0.853500
     26 OPP          1.0980     1.1430     1.0930 os         1 18T      -0.693800
     27 P2           2.2020     0.7660     2.1530 p5         1 18T       1.469800
     28 O3P          1.5330     0.2130     3.3680 o          1 18T      -0.845000
     29 O4P          3.1560     1.8450     2.5390 o          1 18T      -0.845000
     30 C1           4.0680    -0.1020     0.5390 c6         1 18T       0.427300
     31 O3           3.5920    -2.3640    -2.5180 oh         1 18T      -0.685000
     32 C4           4.9730    -2.7180    -0.5010 c6         1 18T       0.147300
     33 O4           4.8350    -4.1460    -0.6180 oh         1 18T      -0.709000
     34 O5           5.2150    -0.8160     1.0580 os         1 18T      -0.484000
     35 H1           4.7730    -0.1520    -1.5120 h1         1 18T       0.006700
     36 H2           2.8410    -2.3250    -0.5650 h1         1 18T       0.094700
     37 H3           4.2610    -2.6050     1.5660 h1         1 18T       0.103700
     38 H4           7.3130    -2.5100     1.0990 hc         1 18T       0.029700
     39 H5           6.5120    -2.4410     2.6800 hc         1 18T       0.029700
     40 H6           6.4020    -3.9070     1.6990 hc         1 18T       0.029700
     41 H7           2.6820     1.1110    -1.2330 ho         1 18T       0.496000
     42 H8          -7.3510    -4.0530    -1.8840 hc         1 18T       0.036033
     43 H9          -6.1890    -3.7540    -3.1860 hc         1 18T       0.036033
     44 H10         -5.8160    -4.9450    -1.9300 hc         1 18T       0.036033
     45 H11         -4.9050    -1.5790    -2.8690 h4         1 18T       0.198000
     46 H12         -5.1460    -2.1730     1.8970 hn         1 18T       0.338500
     47 H13         -3.4570     0.0210    -2.6320 h2         1 18T       0.044700
     48 H14         -4.7760     1.9320    -2.5890 hc         1 18T       0.050700
     49 H15         -5.6200     1.3510    -1.1540 hc         1 18T       0.050700
     50 H16         -4.0320     2.3950     0.3710 h1         1 18T       0.071700
     51 H17         -5.0430     4.0770    -0.8900 ho         1 18T       0.488000
     52 H18         -2.0880     2.3690    -2.0440 h1         1 18T       0.071700
     53 H19         -1.4450     3.7220     0.0920 h1         1 18T       0.029200
     54 H20         -1.4080     2.1560     0.9370 h1         1 18T       0.029200
     55 H23          4.2880     0.9750     0.5910 h2         1 18T       0.080700
     56 H24          3.0700    -1.6190    -2.8970 ho         1 18T       0.447000
     57 H25          5.8680    -2.3940    -1.0540 h1         1 18T       0.018700
     58 H26          4.4750    -4.2900    -1.5250 ho         1 18T       0.483000
     59 O41         -6.2270    -4.0160     0.7490 o          1 18T      -0.563000
@<TRIPOS>BOND
     1     1     2 1   
     2     1     6 1   
     3     1    30 1   
     4     1    35 1   
     5     2    31 1   
     6     2    32 1   
     7     2    36 1   
     8     3     4 1   
     9     3    32 1   
    10     3    34 1   
    11     3    37 1   
    12     4    38 1   
    13     4    39 1   
    14     4    40 1   
    15     5    27 1   
    16     5    30 1   
    17     6    41 1   
    18     7     8 1   
    19     7    11 1   
    20     7    59 2   
    21     8     9 1   
    22     8    10 2   
    23     9    42 1   
    24     9    43 1   
    25     9    44 1   
    26    10    14 1   
    27    10    45 1   
    28    11    12 1   
    29    11    46 1   
    30    12    13 2   
    31    12    14 1   
    32    14    15 1   
    33    15    16 1   
    34    15    17 1   
    35    15    47 1   
    36    16    20 1   
    37    17    18 1   
    38    17    48 1   
    39    17    49 1   
    40    18    19 1   
    41    18    20 1   
    42    18    50 1   
    43    19    51 1   
    44    20    21 1   
    45    20    52 1   
    46    21    22 1   
    47    21    53 1   
    48    21    54 1   
    49    22    23 1   
    50    23    24 1   
    51    23    25 1   
    52    23    26 1   
    53    26    27 1   
    54    27    28 1   
    55    27    29 1   
    56    30    34 1   
    57    30    55 1   
    58    31    56 1   
    59    32    33 1   
    60    32    57 1   
    61    33    58 1   
@<TRIPOS>SUBSTRUCTURE
     1 18T         1 TEMP              0 ****  ****    0 ROOT
