@<TRIPOS>MOLECULE
18U
   31    32     1     0     0
SMALL
No Charge or Current Charge


@<TRIPOS>ATOM
      1 C4          -2.8210     1.5280     0.2610 ca         1 18U      -0.118000
      2 C6          -4.1220     1.0060     0.1560 ca         1 18U      -0.096000
      3 C8          -4.3520    -0.3880     0.2370 ca         1 18U      -0.135600
      4 C9          -5.7600    -0.9550     0.1240 c          1 18U       0.715600
      5 O10         -6.6930    -0.1820    -0.0400 o          1 18U      -0.734000
      6 O11         -5.9140    -2.1660     0.2040 o          1 18U      -0.734000
      7 C7          -3.2380    -1.2410     0.4260 ca         1 18U      -0.096000
      8 C5          -1.9380    -0.7160     0.5300 ca         1 18U      -0.118000
      9 C3          -1.7200     0.6710     0.4500 ca         1 18U      -0.118300
     10 C2          -0.3130     1.2380     0.5680 c3         1 18U       0.249100
     11 N1           0.2800     1.3810    -0.7600 n7         1 18U      -0.835300
     12 S13          1.8840     1.7790    -0.8270 sy         1 18U       1.161600
     13 O16          2.2700     1.5460    -2.2210 o          1 18U      -0.581000
     14 O17          2.0130     3.1050    -0.2150 o          1 18U      -0.581000
     15 C15          2.6950     0.5450     0.2200 cc         1 18U      -0.346500
     16 C19          3.5240     0.9080     1.3200 cc         1 18U      -0.060000
     17 C22          4.0810    -0.1340     2.0060 cd         1 18U      -0.334000
     18 S20          3.6380    -1.6790     1.2830 ss         1 18U       0.241000
     19 C18          2.6210    -0.8500     0.0880 cd         1 18U      -0.130600
     20 C21          1.7950    -1.6660    -0.8630 c          1 18U       0.732600
     21 O24          1.9130    -2.8820    -0.8260 o          1 18U      -0.686000
     22 O23          0.9970    -1.1160    -1.6060 o          1 18U      -0.686000
     23 H1          -2.6670     2.6020     0.1940 ha         1 18U       0.092500
     24 H2          -4.9530     1.6920     0.0100 ha         1 18U       0.119500
     25 H4          -3.3770    -2.3180     0.4920 ha         1 18U       0.119500
     26 H5          -1.0990    -1.3920     0.6750 ha         1 18U       0.092500
     27 H6          -0.3580     2.2120     1.0760 h1         1 18U       0.037200
     28 H7           0.2800     0.5670     1.2030 h1         1 18U       0.037200
     29 H8           0.3800     0.4320    -1.1450 hn         1 18U       0.541000
     30 H9           3.6940     1.9480     1.5890 ha         1 18U       0.130000
     31 H10          4.7370    -0.0980     2.8670 h4         1 18U       0.119000
@<TRIPOS>BOND
     1     1     2 ar  
     2     1     9 ar  
     3     1    23 1   
     4     2     3 ar  
     5     2    24 1   
     6     3     4 1   
     7     3     7 ar  
     8     4     5 1   
     9     4     6 1   
    10     7     8 ar  
    11     7    25 1   
    12     8     9 ar  
    13     8    26 1   
    14     9    10 1   
    15    10    11 1   
    16    10    27 1   
    17    10    28 1   
    18    11    12 1   
    19    11    29 1   
    20    12    13 2   
    21    12    14 2   
    22    12    15 1   
    23    15    16 1   
    24    15    19 2   
    25    16    17 2   
    26    16    30 1   
    27    17    18 1   
    28    17    31 1   
    29    18    19 1   
    30    19    20 1   
    31    20    21 1   
    32    20    22 1   
@<TRIPOS>SUBSTRUCTURE
     1 18U         1 TEMP              0 ****  ****    0 ROOT
