@<TRIPOS>MOLECULE
18U
   31    32     1     0     0
SMALL
abcg2


@<TRIPOS>ATOM
      1 C4          -2.8890     1.5560     0.1590 ca         1 18U      -0.118000
      2 C6          -4.1390     0.9750     0.0070 ca         1 18U      -0.096000
      3 C8          -4.3240    -0.3910     0.2100 ca         1 18U      -0.135600
      4 C9          -5.7000    -1.0260     0.0470 c          1 18U       0.715600
      5 O10         -6.6270    -0.2660    -0.2900 o          1 18U      -0.734000
      6 O11         -5.7780    -2.2500     0.2640 o          1 18U      -0.734000
      7 C7          -3.2190    -1.1590     0.5690 ca         1 18U      -0.096000
      8 C5          -1.9680    -0.5800     0.7210 ca         1 18U      -0.118000
      9 C3          -1.7890     0.7860     0.5230 ca         1 18U      -0.118300
     10 C2          -0.4250     1.4000     0.6570 c3         1 18U       0.249100
     11 N1           0.2470     1.3220    -0.6470 n7         1 18U      -0.835300
     12 S13          1.8410     1.7160    -0.6810 sy         1 18U       1.161600
     13 O16          2.2770     1.6600    -2.0660 o          1 18U      -0.581000
     14 O17          2.0090     2.9610     0.0560 o          1 18U      -0.581000
     15 C15          2.7010     0.4710     0.2370 cc         1 18U      -0.346500
     16 C19          3.5950     0.8290     1.2820 cc         1 18U      -0.060000
     17 C22          4.1910    -0.2660     1.8280 cd         1 18U      -0.334000
     18 S20          3.6710    -1.7120     1.0830 ss         1 18U       0.241000
     19 C18          2.6280    -0.8800     0.0100 cd         1 18U      -0.130600
     20 C21          1.8240    -1.7320    -0.9470 c          1 18U       0.732600
     21 O24          2.1260    -2.9330    -0.9450 o          1 18U      -0.686000
     22 O23          0.9450    -1.1630    -1.6250 o          1 18U      -0.686000
     23 H1          -2.7670     2.6220    -0.0010 ha         1 18U       0.092500
     24 H2          -4.9860     1.5890    -0.2690 ha         1 18U       0.119500
     25 H4          -3.3410    -2.2220     0.7310 ha         1 18U       0.119500
     26 H5          -1.1210    -1.1950     1.0040 ha         1 18U       0.092500
     27 H6          -0.5070     2.4460     0.9500 h1         1 18U       0.037200
     28 H7           0.1360     0.8770     1.4410 h1         1 18U       0.037200
     29 H8           0.1750     0.3850    -1.0750 hn         1 18U       0.541000
     30 H9           3.7820     1.8410     1.6060 ha         1 18U       0.130000
     31 H10          4.9080    -0.2850     2.6350 h4         1 18U       0.119000
@<TRIPOS>BOND
     1     1     2 ar  
     2     1     9 ar  
     3     1    23 1   
     4     2     3 ar  
     5     2    24 1   
     6     3     4 1   
     7     3     7 ar  
     8     4     5 1   
     9     4     6 1   
    10     7     8 ar  
    11     7    25 1   
    12     8     9 ar  
    13     8    26 1   
    14     9    10 1   
    15    10    11 1   
    16    10    27 1   
    17    10    28 1   
    18    11    12 1   
    19    11    29 1   
    20    12    13 2   
    21    12    14 2   
    22    12    15 1   
    23    15    16 1   
    24    15    19 2   
    25    16    17 2   
    26    16    30 1   
    27    17    18 1   
    28    17    31 1   
    29    18    19 1   
    30    19    20 1   
    31    20    21 1   
    32    20    22 1   
@<TRIPOS>SUBSTRUCTURE
     1 18U         1 TEMP              0 ****  ****    0 ROOT
