@<TRIPOS>MOLECULE
18V
   54    56     1     0     0
SMALL
No Charge or Current Charge


@<TRIPOS>ATOM
      1 FAE          5.5360    -4.4220     1.4970 f          1 18V      -0.260000
      2 CAK          4.7210    -4.4320     0.4100 c3         1 18V       0.187600
      3 CAL          3.9420    -3.1050     0.2970 c3         1 18V       0.123600
      4 OAS          4.8800    -2.0350     0.0640 os         1 18V      -0.321100
      5 CBA          4.4880    -0.7140    -0.0840 ca         1 18V       0.107100
      6 CAI          3.1300    -0.3260    -0.0120 ca         1 18V      -0.130000
      7 CAZ          5.4840     0.2620    -0.3130 ca         1 18V       0.131100
      8 OAR          6.8080    -0.1410    -0.3800 os         1 18V      -0.315100
      9 CAB          7.8870     0.7830    -0.6090 c3         1 18V       0.144900
     10 CAG          5.1080     1.6140    -0.4670 ca         1 18V      -0.179000
     11 CAF          3.7570     1.9900    -0.3940 ca         1 18V      -0.090000
     12 CAX          2.7460     1.0290    -0.1660 ca         1 18V      -0.136500
     13 CBD          1.3220     1.4190    -0.0870 cc         1 18V       0.506900
     14 NAQ          0.3510     0.5410     0.1390 nd         1 18V      -0.639000
     15 SAU          0.8020     3.0790    -0.2850 ss         1 18V      -0.036400
     16 CBC         -0.8340     2.5410    -0.0470 cc         1 18V      -0.204300
     17 CAM         -1.9790     3.5210    -0.0840 c3         1 18V      -0.007100
     18 CAJ         -2.2710     4.1380     1.3000 c3         1 18V      -0.074400
     19 CAA         -3.4470     5.1330     1.2830 c3         1 18V      -0.090100
     20 CBB         -0.8810     1.1780     0.1600 cd         1 18V       0.287300
     21 CAN         -2.1290     0.3670     0.4050 c3         1 18V       0.025300
     22 SAT         -3.1000    -0.0070    -1.1320 ss         1 18V      -0.313300
     23 C2          -4.5150    -0.9370    -0.5490 ca         1 18V       0.312300
     24 N3          -5.3710    -1.3720    -1.4950 nb         1 18V      -0.295000
     25 N1          -4.6390    -1.1430     0.7790 nb         1 18V      -0.295000
     26 C6          -5.7080    -1.8420     1.1720 ca         1 18V       0.413900
     27 NAC         -5.8330    -2.0480     2.5010 nv         1 18V      -1.069900
     28 C5          -6.6510    -2.3360     0.2810 ca         1 18V      -0.388000
     29 C4          -6.4280    -2.0660    -1.0630 ca         1 18V       0.413900
     30 NAD         -7.2850    -2.5030    -2.0120 nv         1 18V      -1.069900
     31 H1           5.3300    -4.5900    -0.4890 h1         1 18V       0.053700
     32 H2           4.0180    -5.2680     0.5100 h1         1 18V       0.053700
     33 H3           3.2300    -3.1810    -0.5350 h1         1 18V       0.048700
     34 H4           3.3790    -2.9380     1.2250 h1         1 18V       0.048700
     35 H5           2.3610    -1.0720     0.1630 ha         1 18V       0.144000
     36 H6           7.7660     1.2930    -1.5730 h1         1 18V       0.041367
     37 H7           7.9290     1.5380     0.1870 h1         1 18V       0.041367
     38 H8           8.8460     0.2510    -0.6240 h1         1 18V       0.041367
     39 H9           5.8490     2.3880    -0.6430 ha         1 18V       0.122000
     40 H10          3.5120     3.0430    -0.5170 ha         1 18V       0.116000
     41 H11         -1.7520     4.3250    -0.7950 hc         1 18V       0.058200
     42 H12         -2.8850     3.0290    -0.4590 hc         1 18V       0.058200
     43 H13         -2.4910     3.3360     2.0150 hc         1 18V       0.043200
     44 H14         -1.3720     4.6510     1.6630 hc         1 18V       0.043200
     45 H15         -3.2400     5.9670     0.6010 hc         1 18V       0.034033
     46 H16         -4.3700     4.6380     0.9580 hc         1 18V       0.034033
     47 H17         -3.6130     5.5440     2.2860 hc         1 18V       0.034033
     48 H18         -1.8490    -0.5800     0.8840 h1         1 18V       0.087200
     49 H19         -2.7710     0.9160     1.1050 h1         1 18V       0.087200
     50 H20         -5.2490    -1.5010     3.1290 hn         1 18V       0.487000
     51 H21         -6.7280    -2.3640     2.8670 hn         1 18V       0.487000
     52 H22         -7.5140    -2.9010     0.6150 ha         1 18V       0.125000
     53 H23         -7.9620    -3.2190    -1.7630 hn         1 18V       0.487000
     54 H24         -6.9880    -2.4710    -2.9840 hn         1 18V       0.487000
@<TRIPOS>BOND
     1     1     2 1   
     2     2     3 1   
     3     2    31 1   
     4     2    32 1   
     5     3     4 1   
     6     3    33 1   
     7     3    34 1   
     8     4     5 1   
     9     5     6 ar  
    10     5     7 ar  
    11     6    12 ar  
    12     6    35 1   
    13     7     8 1   
    14     7    10 ar  
    15     8     9 1   
    16     9    36 1   
    17     9    37 1   
    18     9    38 1   
    19    10    11 ar  
    20    10    39 1   
    21    11    12 ar  
    22    11    40 1   
    23    12    13 1   
    24    13    14 2   
    25    13    15 1   
    26    14    20 1   
    27    15    16 1   
    28    16    17 1   
    29    16    20 2   
    30    17    18 1   
    31    17    41 1   
    32    17    42 1   
    33    18    19 1   
    34    18    43 1   
    35    18    44 1   
    36    19    45 1   
    37    19    46 1   
    38    19    47 1   
    39    20    21 1   
    40    21    22 1   
    41    21    48 1   
    42    21    49 1   
    43    22    23 1   
    44    23    24 ar  
    45    23    25 ar  
    46    24    29 ar  
    47    25    26 ar  
    48    26    27 1   
    49    26    28 ar  
    50    27    50 1   
    51    27    51 1   
    52    28    29 ar  
    53    28    52 1   
    54    29    30 1   
    55    30    53 1   
    56    30    54 1   
@<TRIPOS>SUBSTRUCTURE
     1 18V         1 TEMP              0 ****  ****    0 ROOT
