@<TRIPOS>MOLECULE
18V
   54    56     1     0     0
SMALL
abcg2


@<TRIPOS>ATOM
      1 FAE          5.3480    -4.2490     1.5750 f          1 18V      -0.260000
      2 CAK          4.4330    -4.3040     0.5290 c3         1 18V       0.187600
      3 CAL          3.7270    -2.9880     0.3770 c3         1 18V       0.123600
      4 OAS          4.6740    -2.0170    -0.0240 os         1 18V      -0.321100
      5 CBA          4.2670    -0.7420    -0.1610 ca         1 18V       0.107100
      6 CAI          2.9640    -0.3090    -0.0260 ca         1 18V      -0.130000
      7 CAZ          5.2880     0.1860    -0.4700 ca         1 18V       0.131100
      8 OAR          6.5200    -0.3280    -0.5880 os         1 18V      -0.315100
      9 CAB          7.5840     0.5460    -0.9110 c3         1 18V       0.144900
     10 CAG          4.9600     1.5230    -0.6240 ca         1 18V      -0.179000
     11 CAF          3.6450     1.9500    -0.4800 ca         1 18V      -0.090000
     12 CAX          2.6380     1.0460    -0.1840 ca         1 18V      -0.136500
     13 CBD          1.2450     1.4570    -0.0350 cc         1 18V       0.506900
     14 NAQ          0.2690     0.6460     0.2240 nd         1 18V      -0.639000
     15 SAU          0.7400     3.1080    -0.2000 ss         1 18V      -0.036400
     16 CBC         -0.8910     2.6410     0.0980 cc         1 18V      -0.204300
     17 CAM         -2.0000     3.6370     0.1460 c3         1 18V      -0.007100
     18 CAJ         -2.1550     4.2850     1.5240 c3         1 18V      -0.074400
     19 CAA         -3.2640     5.3260     1.5470 c3         1 18V      -0.090100
     20 CBB         -0.9290     1.2940     0.3120 cd         1 18V       0.287300
     21 CAN         -2.1660     0.5110     0.5930 c3         1 18V       0.025300
     22 SAT         -2.7660    -0.1540    -0.9930 ss         1 18V      -0.313300
     23 C2          -4.1860    -1.0800    -0.5140 ca         1 18V       0.312300
     24 N3          -4.7730    -1.6780    -1.5340 nb         1 18V      -0.295000
     25 N1          -4.5300    -1.0940     0.7550 nb         1 18V      -0.295000
     26 C6          -5.6260    -1.8160     1.0550 ca         1 18V       0.413900
     27 NAC         -5.9670    -1.8700     2.3580 nv         1 18V      -1.069900
     28 C5          -6.3440    -2.4930     0.0740 ca         1 18V      -0.388000
     29 C4          -5.8720    -2.3920    -1.2360 ca         1 18V       0.413900
     30 NAD         -6.5070    -2.9780    -2.2670 nv         1 18V      -1.069900
     31 H1           4.9680    -4.5730    -0.3830 h1         1 18V       0.053700
     32 H2           3.6960    -5.0780     0.7480 h1         1 18V       0.053700
     33 H3           2.9410    -3.1110    -0.3760 h1         1 18V       0.048700
     34 H4           3.2470    -2.7010     1.3190 h1         1 18V       0.048700
     35 H5           2.1690    -1.0070     0.2000 ha         1 18V       0.144000
     36 H6           7.4350     1.0280    -1.8810 h1         1 18V       0.041367
     37 H7           7.7240     1.3170    -0.1500 h1         1 18V       0.041367
     38 H8           8.4810    -0.0660    -0.9580 h1         1 18V       0.041367
     39 H9           5.7210     2.2560    -0.8550 ha         1 18V       0.122000
     40 H10          3.4350     3.0050    -0.6080 ha         1 18V       0.116000
     41 H11         -1.8380     4.4120    -0.6070 hc         1 18V       0.058200
     42 H12         -2.9320     3.1390    -0.1350 hc         1 18V       0.058200
     43 H13         -2.3530     3.5070     2.2660 hc         1 18V       0.043200
     44 H14         -1.2060     4.7470     1.8120 hc         1 18V       0.043200
     45 H15         -3.0660     6.1260     0.8320 hc         1 18V       0.034033
     46 H16         -4.2290     4.8840     1.2940 hc         1 18V       0.034033
     47 H17         -3.3570     5.7800     2.5340 hc         1 18V       0.034033
     48 H18         -1.9500    -0.3130     1.2710 h1         1 18V       0.087200
     49 H19         -2.9410     1.1270     1.0420 h1         1 18V       0.087200
     50 H20         -5.5550    -1.1990     2.9840 hn         1 18V       0.487000
     51 H21         -6.8730    -2.2190     2.6180 hn         1 18V       0.487000
     52 H22         -7.2300    -3.0650     0.3130 ha         1 18V       0.125000
     53 H23         -7.2330    -3.6510    -2.0990 hn         1 18V       0.487000
     54 H24         -6.0530    -3.0110    -3.1630 hn         1 18V       0.487000
@<TRIPOS>BOND
     1     1     2 1   
     2     2     3 1   
     3     2    31 1   
     4     2    32 1   
     5     3     4 1   
     6     3    33 1   
     7     3    34 1   
     8     4     5 1   
     9     5     6 ar  
    10     5     7 ar  
    11     6    12 ar  
    12     6    35 1   
    13     7     8 1   
    14     7    10 ar  
    15     8     9 1   
    16     9    36 1   
    17     9    37 1   
    18     9    38 1   
    19    10    11 ar  
    20    10    39 1   
    21    11    12 ar  
    22    11    40 1   
    23    12    13 1   
    24    13    14 2   
    25    13    15 1   
    26    14    20 1   
    27    15    16 1   
    28    16    17 1   
    29    16    20 2   
    30    17    18 1   
    31    17    41 1   
    32    17    42 1   
    33    18    19 1   
    34    18    43 1   
    35    18    44 1   
    36    19    45 1   
    37    19    46 1   
    38    19    47 1   
    39    20    21 1   
    40    21    22 1   
    41    21    48 1   
    42    21    49 1   
    43    22    23 1   
    44    23    24 ar  
    45    23    25 ar  
    46    24    29 ar  
    47    25    26 ar  
    48    26    27 1   
    49    26    28 ar  
    50    27    50 1   
    51    27    51 1   
    52    28    29 ar  
    53    28    52 1   
    54    29    30 1   
    55    30    53 1   
    56    30    54 1   
@<TRIPOS>SUBSTRUCTURE
     1 18V         1 TEMP              0 ****  ****    0 ROOT
