@<TRIPOS>MOLECULE
18W
   49    50     1     0     0
SMALL
abcg2


@<TRIPOS>ATOM
      1 O3A         -3.2770     4.0490     0.0800 o          1 18W      -0.765500
      2 C9A         -3.0620     3.5320     1.1950 c          1 18W       0.718000
      3 O4A         -3.0170     4.1310     2.2900 o          1 18W      -0.765500
      4 C8A         -2.8090     2.0160     1.2490 c3         1 18W      -0.192400
      5 C7A         -2.9860     1.2620    -0.0670 c3         1 18W      -0.003100
      6 C3A         -2.7040    -0.1980     0.0730 cc         1 18W      -0.064300
      7 C2A         -3.6380    -1.2090     0.4140 cc         1 18W      -0.057300
      8 C5A         -5.0970    -1.0160     0.6390 c3         1 18W      -0.143100
      9 C6A         -5.9610    -0.7850    -0.6240 c          1 18W       0.723000
     10 O2A         -7.1870    -0.6730    -0.4140 o          1 18W      -0.750000
     11 O1A         -5.3880    -0.7230    -1.7260 o          1 18W      -0.750000
     12 C1A         -2.9340    -2.3930     0.5200 cd         1 18W      -0.234300
     13 CHA         -3.3970    -3.7770     0.8060 c3         1 18W       0.006200
     14 NA          -1.6190    -2.1260     0.2870 na         1 18W      -0.128000
     15 C4A         -1.4530    -0.7920    -0.0030 cd         1 18W      -0.153800
     16 CHB         -0.2000    -0.1630    -0.2870 cf         1 18W      -0.106200
     17 C1B          1.0520    -0.5900    -0.0210 cc         1 18W      -0.005400
     18 C2B          2.2910     0.0690    -0.4070 cc         1 18W       0.056800
     19 C5B          2.3370     1.3200    -1.2020 c3         1 18W      -0.191200
     20 C6B          2.0670     1.1250    -2.7180 c          1 18W       0.733000
     21 O2B          2.0940    -0.0360    -3.1590 o          1 18W      -0.739500
     22 O1B          1.8730     2.1730    -3.3630 o          1 18W      -0.739500
     23 NB           1.4230    -1.7460     0.6610 ns         1 18W      -0.433100
     24 C4B          2.7880    -1.8200     0.7830 c          1 18W       0.560200
     25 O5B          3.3940    -2.6920     1.3900 o          1 18W      -0.624000
     26 C3B          3.3300    -0.6640     0.0540 cd         1 18W      -0.242400
     27 C7B          4.7920    -0.4000    -0.0530 c3         1 18W       0.018800
     28 C8B          5.3690     0.1770     1.2380 c3         1 18W      -0.197400
     29 C9B          6.8720     0.5050     1.2060 c          1 18W       0.716000
     30 O4B          7.3490     0.9700     2.2630 o          1 18W      -0.771000
     31 O3B          7.4950     0.2920     0.1470 o          1 18W      -0.771000
     32 H2          -1.7910     1.8540     1.6210 hc         1 18W       0.012700
     33 H3          -3.4590     1.5790     2.0140 hc         1 18W       0.012700
     34 H4          -4.0020     1.4000    -0.4400 hc         1 18W       0.063200
     35 H5          -2.3330     1.7030    -0.8250 hc         1 18W       0.063200
     36 H6          -5.5140    -1.8730     1.1780 hc         1 18W       0.017700
     37 H7          -5.2620    -0.1640     1.3080 hc         1 18W       0.017700
     38 H9          -2.8270    -4.2340     1.6180 hc         1 18W       0.012700
     39 H10         -4.4460    -3.7810     1.0970 hc         1 18W       0.012700
     40 H11         -3.2980    -4.4290    -0.0650 hc         1 18W       0.012700
     41 H12         -0.9330    -2.8440     0.1250 hn         1 18W       0.318000
     42 H13         -0.2760     0.8060    -0.7670 ha         1 18W       0.227000
     43 H15          1.6330     2.0570    -0.8040 hc         1 18W       0.047200
     44 H16          3.3250     1.7780    -1.1010 hc         1 18W       0.047200
     45 H18          5.3150    -1.3270    -0.3040 hc         1 18W       0.045200
     46 H19          4.9800     0.2890    -0.8780 hc         1 18W       0.045200
     47 H20          4.8230     1.0890     1.5040 hc         1 18W       0.021700
     48 H21          5.1860    -0.5180     2.0650 hc         1 18W       0.021700
     49 H14          0.8090    -2.2800     1.2550 hn         1 18W       0.299500
@<TRIPOS>BOND
     1     1     2 1   
     2     2     3 1   
     3     2     4 1   
     4     4     5 1   
     5     4    32 1   
     6     4    33 1   
     7     5     6 1   
     8     5    34 1   
     9     5    35 1   
    10     6     7 1   
    11     6    15 2   
    12     7     8 1   
    13     7    12 2   
    14     8     9 1   
    15     8    36 1   
    16     8    37 1   
    17     9    10 1   
    18     9    11 1   
    19    12    13 1   
    20    12    14 1   
    21    13    38 1   
    22    13    39 1   
    23    13    40 1   
    24    14    15 1   
    25    14    41 1   
    26    15    16 1   
    27    16    17 2   
    28    16    42 1   
    29    17    18 1   
    30    17    23 1   
    31    18    19 1   
    32    18    26 2   
    33    19    20 1   
    34    19    43 1   
    35    19    44 1   
    36    20    21 1   
    37    20    22 1   
    38    23    24 1   
    39    23    49 1   
    40    24    25 2   
    41    24    26 1   
    42    26    27 1   
    43    27    28 1   
    44    27    45 1   
    45    27    46 1   
    46    28    29 1   
    47    28    47 1   
    48    28    48 1   
    49    29    30 1   
    50    29    31 1   
@<TRIPOS>SUBSTRUCTURE
     1 18W         1 TEMP              0 ****  ****    0 ROOT
