@<TRIPOS>MOLECULE
18W
   49    50     1     0     0
SMALL
No Charge or Current Charge


@<TRIPOS>ATOM
      1 O3A         -2.3240     4.3640     0.3720 o          1 18W      -0.765500
      2 C9A         -3.2110     3.6450     0.8050 c          1 18W       0.718000
      3 O4A         -4.3710     4.0090     0.9290 o          1 18W      -0.765500
      4 C8A         -2.8610     2.1890     1.1590 c3         1 18W      -0.192400
      5 C7A         -3.0350     1.2880    -0.0870 c3         1 18W      -0.003100
      6 C3A         -2.7140    -0.1670     0.1900 cc         1 18W      -0.064300
      7 C2A         -3.6870    -1.1490     0.5410 cc         1 18W      -0.057300
      8 C5A         -5.1760    -0.8950     0.6900 c3         1 18W      -0.143100
      9 C6A         -5.9580    -1.1260    -0.6220 c          1 18W       0.723000
     10 O2A         -6.3540    -2.2560    -0.8720 o          1 18W      -0.750000
     11 O1A         -6.0760    -0.1920    -1.4030 o          1 18W      -0.750000
     12 C1A         -3.0350    -2.3390     0.7330 cd         1 18W      -0.234300
     13 CHA         -3.5860    -3.6880     1.1170 c3         1 18W       0.006200
     14 NA          -1.6810    -2.1030     0.4980 na         1 18W      -0.128000
     15 C4A         -1.4710    -0.7600     0.1700 cd         1 18W      -0.153800
     16 CHB         -0.1860    -0.1000    -0.1140 cf         1 18W      -0.106200
     17 C1B          1.1040    -0.5420     0.0220 cc         1 18W      -0.005400
     18 C2B          2.3380     0.1220    -0.3220 cc         1 18W       0.056800
     19 C5B          2.4390     1.5050    -0.9210 c3         1 18W      -0.191200
     20 C6B          2.1830     1.4890    -2.4310 c          1 18W       0.733000
     21 O2B          3.1250     1.2520    -3.1730 o          1 18W      -0.739500
     22 O1B          1.0310     1.6020    -2.8210 o          1 18W      -0.739500
     23 NB           1.4700    -1.7620     0.5410 ns         1 18W      -0.433100
     24 C4B          2.8100    -1.9830     0.5810 c          1 18W       0.560200
     25 O5B          3.3740    -2.9820     0.9990 o          1 18W      -0.624000
     26 C3B          3.3660    -0.7430     0.0130 cd         1 18W      -0.242400
     27 C7B          4.8610    -0.5660    -0.1330 c3         1 18W       0.018800
     28 C8B          5.5020     0.0740     1.1190 c3         1 18W      -0.197400
     29 C9B          7.0170     0.2280     0.9090 c          1 18W       0.716000
     30 O4B          7.7430    -0.7010     1.2270 o          1 18W      -0.771000
     31 O3B          7.4290     1.2550     0.3930 o          1 18W      -0.771000
     32 H2          -1.8050     2.1040     1.4440 hc         1 18W       0.012700
     33 H3          -3.5540     1.7960     1.9130 hc         1 18W       0.012700
     34 H4          -4.0560     1.3930    -0.4670 hc         1 18W       0.063200
     35 H5          -2.3940     1.6620    -0.8940 hc         1 18W       0.063200
     36 H6          -5.5290    -1.6030     1.4490 hc         1 18W       0.017700
     37 H7          -5.2960     0.1440     1.0170 hc         1 18W       0.017700
     38 H9          -4.1140    -3.6380     2.0770 hc         1 18W       0.012700
     39 H10         -4.2930    -4.0540     0.3630 hc         1 18W       0.012700
     40 H11         -2.7890    -4.4340     1.2150 hc         1 18W       0.012700
     41 H12         -0.9620    -2.8140     0.5350 hn         1 18W       0.318000
     42 H13         -0.2630     0.9050    -0.5250 ha         1 18W       0.227000
     43 H15          1.6880     2.1250    -0.4190 hc         1 18W       0.047200
     44 H16          3.4600     1.8530    -0.7300 hc         1 18W       0.047200
     45 H18          5.3370    -1.5350    -0.3250 hc         1 18W       0.045200
     46 H19          5.0810     0.0560    -1.0090 hc         1 18W       0.045200
     47 H20          5.0250     1.0550     1.2320 hc         1 18W       0.021700
     48 H21          5.2950    -0.6160     1.9470 hc         1 18W       0.021700
     49 H14          0.8320    -2.4450     0.9210 hn         1 18W       0.299500
@<TRIPOS>BOND
     1     1     2 1   
     2     2     3 1   
     3     2     4 1   
     4     4     5 1   
     5     4    32 1   
     6     4    33 1   
     7     5     6 1   
     8     5    34 1   
     9     5    35 1   
    10     6     7 1   
    11     6    15 2   
    12     7     8 1   
    13     7    12 2   
    14     8     9 1   
    15     8    36 1   
    16     8    37 1   
    17     9    10 1   
    18     9    11 1   
    19    12    13 1   
    20    12    14 1   
    21    13    38 1   
    22    13    39 1   
    23    13    40 1   
    24    14    15 1   
    25    14    41 1   
    26    15    16 1   
    27    16    17 2   
    28    16    42 1   
    29    17    18 1   
    30    17    23 1   
    31    18    19 1   
    32    18    26 2   
    33    19    20 1   
    34    19    43 1   
    35    19    44 1   
    36    20    21 1   
    37    20    22 1   
    38    23    24 1   
    39    23    49 1   
    40    24    25 2   
    41    24    26 1   
    42    26    27 1   
    43    27    28 1   
    44    27    45 1   
    45    27    46 1   
    46    28    29 1   
    47    28    47 1   
    48    28    48 1   
    49    29    30 1   
    50    29    31 1   
@<TRIPOS>SUBSTRUCTURE
     1 18W         1 TEMP              0 ****  ****    0 ROOT
