@<TRIPOS>MOLECULE
18X
   39    41     1     0     0
SMALL
bcc


@<TRIPOS>ATOM
      1 C1          -2.2810     0.9910     0.0440 ce         1 18X      -0.169900
      2 C2          -3.4710     1.8450     0.0360 c          1 18X       0.672300
      3 C3          -1.0290     1.6470    -0.0430 cg         1 18X       0.224500
      4 N4          -0.0590     2.2670    -0.1350 n1         1 18X      -0.369800
      5 O5          -4.6020     1.4140     0.0860 o          1 18X      -0.553000
      6 O6          -3.1650     3.1260    -0.0280 os         1 18X      -0.395900
      7 C7          -4.2400     4.0670    -0.0370 c3         1 18X       0.130700
      8 C8          -2.4380    -0.3720     0.1150 c2         1 18X       0.246200
      9 N9          -1.4260    -1.2880     0.1550 n          1 18X      -0.303200
     10 C10         -1.7830    -2.6350     0.1870 c          1 18X       0.723500
     11 C11         -3.2710    -2.7880     0.2090 c5         1 18X      -0.173300
     12 S12         -3.9990    -1.1350     0.1650 ss         1 18X      -0.036700
     13 C13         -0.0490    -0.9500     0.1660 ca         1 18X      -0.030400
     14 C14          0.6210    -0.6960     1.3490 ca         1 18X      -0.077000
     15 C15          1.9590    -0.3540     1.3280 ca         1 18X      -0.131000
     16 C16          2.6730    -0.2700     0.1270 cp         1 18X       0.035000
     17 C17          1.9900    -0.5620    -1.0580 ca         1 18X      -0.158000
     18 C18          0.6570    -0.8980    -1.0210 ca         1 18X       0.165900
     19 C19          4.1060     0.1150     0.1020 cp         1 18X      -0.040000
     20 C20          4.7930     0.4310     1.2790 ca         1 18X      -0.108500
     21 C21          6.1300     0.7950     1.2580 ca         1 18X      -0.131000
     22 C22          6.8220     0.8550     0.0580 ca         1 18X      -0.115000
     23 C23          6.1580     0.5470    -1.1210 ca         1 18X      -0.131000
     24 C24          4.8200     0.1830    -1.0970 ca         1 18X      -0.108500
     25 F25          0.0090    -1.1570    -2.1590 f          1 18X      -0.129900
     26 O26         -0.9730    -3.5190     0.2000 o          1 18X      -0.530500
     27 H1          -4.8400     3.9920     0.8700 h1         1 18X       0.051033
     28 H2          -3.7740     5.0460    -0.0810 h1         1 18X       0.051033
     29 H3          -4.8790     3.9290    -0.9080 h1         1 18X       0.051033
     30 H4          -3.6000    -3.3680    -0.6540 h1         1 18X       0.117700
     31 H5          -3.5770    -3.3120     1.1150 h1         1 18X       0.117700
     32 H6           0.0860    -0.7500     2.2880 ha         1 18X       0.146000
     33 H7           2.4360    -0.1510     2.2750 ha         1 18X       0.142000
     34 H8           2.4740    -0.5250    -2.0230 ha         1 18X       0.156000
     35 H9           4.2950     0.3970     2.2380 ha         1 18X       0.130500
     36 H10          6.6290     1.0320     2.1880 ha         1 18X       0.133000
     37 H11          7.8660     1.1390     0.0400 ha         1 18X       0.133000
     38 H12          6.6800     0.5920    -2.0670 ha         1 18X       0.133000
     39 H13          4.3480    -0.0480    -2.0420 ha         1 18X       0.130500
@<TRIPOS>BOND
     1     1     2 1   
     2     1     3 1   
     3     1     8 2   
     4     2     5 2   
     5     2     6 1   
     6     3     4 3   
     7     6     7 1   
     8     7    27 1   
     9     7    28 1   
    10     7    29 1   
    11     8     9 1   
    12     8    12 1   
    13     9    10 1   
    14     9    13 1   
    15    10    11 1   
    16    10    26 2   
    17    11    12 1   
    18    11    30 1   
    19    11    31 1   
    20    13    14 ar  
    21    13    18 ar  
    22    14    15 ar  
    23    14    32 1   
    24    15    16 ar  
    25    15    33 1   
    26    16    17 ar  
    27    16    19 1   
    28    17    18 ar  
    29    17    34 1   
    30    18    25 1   
    31    19    20 ar  
    32    19    24 ar  
    33    20    21 ar  
    34    20    35 1   
    35    21    22 ar  
    36    21    36 1   
    37    22    23 ar  
    38    22    37 1   
    39    23    24 ar  
    40    23    38 1   
    41    24    39 1   
@<TRIPOS>SUBSTRUCTURE
     1 18X         1 TEMP              0 ****  ****    0 ROOT
