@<TRIPOS>MOLECULE
18X
   39    41     1     0     0
SMALL
No Charge or Current Charge


@<TRIPOS>ATOM
      1 C1          -2.4620     0.9840     0.0690 ce         1 18X      -0.169900
      2 C2          -3.6170     1.8550     0.4970 c          1 18X       0.623300
      3 C3          -1.3620     1.6730    -0.5390 cg         1 18X       0.313700
      4 N4          -0.4870     2.2280    -1.0760 n1         1 18X      -0.459000
      5 O5          -4.6400     1.4510     1.0330 o          1 18X      -0.504000
      6 O6          -3.4050     3.1900     0.2370 os         1 18X      -0.419100
      7 C7          -4.4300     4.1320     0.6050 c3         1 18X       0.153900
      8 C8          -2.4480    -0.3780     0.1980 c2         1 18X       0.246200
      9 N9          -1.4060    -1.2850    -0.1550 n          1 18X      -0.143600
     10 C10         -1.7870    -2.6300    -0.3790 c          1 18X       0.581000
     11 C11         -3.3020    -2.7430    -0.2710 c5         1 18X      -0.125400
     12 S12         -3.8010    -1.3630     0.8350 ss         1 18X      -0.084600
     13 C13         -0.0040    -0.9490    -0.0960 ca         1 18X      -0.123000
     14 C14          0.5440    -0.4580     1.1040 ca         1 18X      -0.059000
     15 C15          1.9080    -0.1240     1.1750 ca         1 18X      -0.113000
     16 C16          2.7620    -0.2690     0.0530 cp         1 18X       0.035000
     17 C17          2.1940    -0.7620    -1.1470 ca         1 18X      -0.140000
     18 C18          0.8330    -1.0960    -1.2210 ca         1 18X       0.201000
     19 C19          4.2140     0.0900     0.1320 cp         1 18X      -0.040000
     20 C20          4.6580     1.1790     0.9260 ca         1 18X      -0.090500
     21 C21          6.0200     1.5170     0.9990 ca         1 18X      -0.113000
     22 C22          6.9690     0.7730     0.2810 ca         1 18X      -0.097000
     23 C23          6.5540    -0.3090    -0.5110 ca         1 18X      -0.113000
     24 C24          5.1910    -0.6460    -0.5850 ca         1 18X      -0.090500
     25 F25          0.3250    -1.5270    -2.3980 f          1 18X      -0.165000
     26 O26         -1.0090    -3.5530    -0.5820 o          1 18X      -0.455000
     27 H1          -4.6180     4.1050     1.6870 h1         1 18X       0.051033
     28 H2          -4.1250     5.1510     0.3390 h1         1 18X       0.051033
     29 H3          -5.3710     3.9120     0.0830 h1         1 18X       0.051033
     30 H4          -3.7350    -2.6120    -1.2700 h1         1 18X       0.117700
     31 H5          -3.5840    -3.7180     0.1450 h1         1 18X       0.117700
     32 H6          -0.0830    -0.3400     1.9860 ha         1 18X       0.128000
     33 H7           2.3090     0.2390     2.1180 ha         1 18X       0.124000
     34 H8           2.8060    -0.8680    -2.0370 ha         1 18X       0.138000
     35 H9           3.9390     1.7780     1.4790 ha         1 18X       0.112500
     36 H10          6.3390     2.3580     1.6110 ha         1 18X       0.115000
     37 H11          8.0240     1.0340     0.3380 ha         1 18X       0.115000
     38 H12          7.2880    -0.8890    -1.0660 ha         1 18X       0.115000
     39 H13          4.8940    -1.4960    -1.1940 ha         1 18X       0.112500
@<TRIPOS>BOND
     1     1     2 1   
     2     1     3 1   
     3     1     8 2   
     4     2     5 2   
     5     2     6 1   
     6     3     4 3   
     7     6     7 1   
     8     7    27 1   
     9     7    28 1   
    10     7    29 1   
    11     8     9 1   
    12     8    12 1   
    13     9    10 1   
    14     9    13 1   
    15    10    11 1   
    16    10    26 2   
    17    11    12 1   
    18    11    30 1   
    19    11    31 1   
    20    13    14 ar  
    21    13    18 ar  
    22    14    15 ar  
    23    14    32 1   
    24    15    16 ar  
    25    15    33 1   
    26    16    17 ar  
    27    16    19 1   
    28    17    18 ar  
    29    17    34 1   
    30    18    25 1   
    31    19    20 ar  
    32    19    24 ar  
    33    20    21 ar  
    34    20    35 1   
    35    21    22 ar  
    36    21    36 1   
    37    22    23 ar  
    38    22    37 1   
    39    23    24 ar  
    40    23    38 1   
    41    24    39 1   
@<TRIPOS>SUBSTRUCTURE
     1 18X         1 TEMP              0 ****  ****    0 ROOT
