@<TRIPOS>MOLECULE
18Z
   55    57     1     0     0
SMALL
No Charge or Current Charge


@<TRIPOS>ATOM
      1 N01         -3.2100     4.3480     0.0060 nt         1 18Z      -0.593000
      2 N02          2.3590     1.0280    -0.1030 nu         1 18Z      -0.948200
      3 N03         -2.3320     0.1910     0.2460 nu         1 18Z      -0.948200
      4 N04         -6.0740    -1.8950    -0.9410 nb         1 18Z      -0.248500
      5 N05         -5.3150    -2.9520     1.0850 nb         1 18Z      -0.248500
      6 N06         -7.4770    -3.1540     0.3590 nv         1 18Z      -1.065900
      7 N07          4.8810    -1.8740     0.3310 n3         1 18Z      -0.716600
      8 N08          6.4520    -4.3640    -0.1470 n7         1 18Z      -0.840400
      9 N09          1.9210     3.9070    -0.2370 no         1 18Z       0.719200
     10 C10         -0.5020     3.3900    -0.0270 ca         1 18Z       0.074000
     11 C11         -1.5910     2.4990     0.0910 ca         1 18Z      -0.304600
     12 C12         -1.3140     1.1200     0.1370 ca         1 18Z       0.474000
     13 C13         -0.0030     0.6540     0.0780 ca         1 18Z      -0.364000
     14 C14          1.0680     1.5370    -0.0320 ca         1 18Z       0.486000
     15 C15          0.8240     2.9150    -0.0900 ca         1 18Z      -0.360200
     16 C16         -3.0060     3.0250     0.1640 c          1 18Z       0.638700
     17 C17         -2.4100    -1.0810    -0.4570 c3         1 18Z       0.299100
     18 C18         -3.7920    -1.6420    -0.2330 ca         1 18Z      -0.306300
     19 C19         -4.8400    -1.3900    -1.1370 ca         1 18Z       0.179400
     20 C20         -6.2360    -2.6460     0.1590 ca         1 18Z       0.394900
     21 C21         -4.0820    -2.4450     0.8840 ca         1 18Z       0.179400
     22 C22          2.7980    -0.3660     0.1290 c3         1 18Z       0.222800
     23 C23          4.3420    -0.5210     0.0140 c3         1 18Z       0.150800
     24 C24          6.3750    -1.8880     0.3920 c6         1 18Z       0.126300
     25 C25          6.9450    -3.2940     0.7680 c6         1 18Z       0.147800
     26 C26          4.9620    -4.3580    -0.2130 c6         1 18Z       0.147800
     27 C27          4.3890    -2.9520    -0.5860 c6         1 18Z       0.126300
     28 O28         -3.9800     2.3190     0.3670 o          1 18Z      -0.648100
     29 O29          1.6630     4.9650    -0.8210 o          1 18Z      -0.445000
     30 O30          3.0120     3.6720     0.2960 o          1 18Z      -0.445000
     31 HN01        -2.4410     4.9710    -0.1770 hn         1 18Z       0.317500
     32 HN0A        -4.1530     4.7020     0.0570 hn         1 18Z       0.317500
     33 HN02         3.0760     1.7530    -0.0220 hn         1 18Z       0.534000
     34 HN03        -3.2360     0.6640     0.3630 hn         1 18Z       0.542000
     35 HN06        -8.2490    -2.7680    -0.1800 hn         1 18Z       0.506000
     36 HN0B        -7.7070    -3.5290     1.2770 hn         1 18Z       0.506000
     37 HN08         6.8080    -4.1580    -1.0890 hn         1 18Z       0.401000
     38 H10         -0.6730     4.4650    -0.0590 ha         1 18Z       0.140000
     39 H13          0.1790    -0.4120     0.1260 ha         1 18Z       0.123000
     40 H17         -2.2380    -0.9340    -1.5330 h1         1 18Z       0.049200
     41 H17A        -1.6530    -1.7840    -0.0810 h1         1 18Z       0.049200
     42 H19         -4.6940    -0.7790    -2.0270 h4         1 18Z       0.024100
     43 H21         -3.3240    -2.6850     1.6280 h4         1 18Z       0.024100
     44 H22          2.4880    -0.6910     1.1320 h1         1 18Z       0.053700
     45 H22A         2.3170    -1.0280    -0.6030 h1         1 18Z       0.053700
     46 H23          4.7950     0.2100     0.6990 h1         1 18Z       0.043700
     47 H23A         4.6420    -0.2310    -1.0020 h1         1 18Z       0.043700
     48 H24          6.7950    -1.5870    -0.5800 h1         1 18Z       0.035950
     49 H24A         6.7320    -1.1570     1.1330 h1         1 18Z       0.035950
     50 H25          6.6480    -3.5300     1.8010 h1         1 18Z       0.060950
     51 H25A         8.0450    -3.2600     0.7450 h1         1 18Z       0.060950
     52 H26          4.6190    -5.0990    -0.9510 h1         1 18Z       0.060950
     53 H26A         4.5530    -4.6580     0.7630 h1         1 18Z       0.060950
     54 H27          3.2920    -3.0150    -0.5560 h1         1 18Z       0.035950
     55 H27A         4.6690    -2.7210    -1.6240 h1         1 18Z       0.035950
@<TRIPOS>BOND
     1     1    16 1   
     2     1    31 1   
     3     1    32 1   
     4     2    14 1   
     5     2    22 1   
     6     2    33 1   
     7     3    12 1   
     8     3    17 1   
     9     3    34 1   
    10     4    19 ar  
    11     4    20 ar  
    12     5    20 ar  
    13     5    21 ar  
    14     6    20 1   
    15     6    35 1   
    16     6    36 1   
    17     7    23 1   
    18     7    24 1   
    19     7    27 1   
    20     8    25 1   
    21     8    26 1   
    22     8    37 1   
    23     9    15 1   
    24     9    29 1   
    25     9    30 1   
    26    10    11 ar  
    27    10    15 ar  
    28    10    38 1   
    29    11    12 ar  
    30    11    16 1   
    31    12    13 ar  
    32    13    14 ar  
    33    13    39 1   
    34    14    15 ar  
    35    16    28 2   
    36    17    18 1   
    37    17    40 1   
    38    17    41 1   
    39    18    19 ar  
    40    18    21 ar  
    41    19    42 1   
    42    21    43 1   
    43    22    23 1   
    44    22    44 1   
    45    22    45 1   
    46    23    46 1   
    47    23    47 1   
    48    24    25 1   
    49    24    48 1   
    50    24    49 1   
    51    25    50 1   
    52    25    51 1   
    53    26    27 1   
    54    26    52 1   
    55    26    53 1   
    56    27    54 1   
    57    27    55 1   
@<TRIPOS>SUBSTRUCTURE
     1 18Z         1 TEMP              0 ****  ****    0 ROOT
