@<TRIPOS>MOLECULE
18Z
   55    57     1     0     0
SMALL
abcg2


@<TRIPOS>ATOM
      1 N01         -3.0130     4.4770     0.4000 nt         1 18Z      -0.593000
      2 N02          2.3920     1.0950    -0.1410 nu         1 18Z      -0.948200
      3 N03         -2.2930     0.3600     0.0440 nu         1 18Z      -0.948200
      4 N04         -5.3740    -2.6630    -1.0290 nb         1 18Z      -0.248500
      5 N05         -5.3350    -2.5810     1.3490 nb         1 18Z      -0.248500
      6 N06         -7.1130    -3.4790     0.2180 nv         1 18Z      -1.065900
      7 N07          4.5670    -1.8880     0.2100 n3         1 18Z      -0.716600
      8 N08          6.0130    -4.3720    -0.1580 n7         1 18Z      -0.840400
      9 N09          1.9020     3.9900    -0.3830 no         1 18Z       0.719200
     10 C10         -0.4310     3.4720    -0.1850 ca         1 18Z       0.074000
     11 C11         -1.5160     2.6420    -0.0560 ca         1 18Z      -0.304600
     12 C12         -1.2730     1.2250    -0.0240 ca         1 18Z       0.474000
     13 C13          0.0460     0.7670    -0.0370 ca         1 18Z      -0.364000
     14 C14          1.1580     1.6130    -0.1360 ca         1 18Z       0.486000
     15 C15          0.8870     3.0170    -0.2370 ca         1 18Z      -0.360200
     16 C16         -2.8910     3.1940     0.0240 c          1 18Z       0.638700
     17 C17         -2.1440    -1.0790     0.0540 c3         1 18Z       0.299100
     18 C18         -3.4850    -1.7380     0.0990 ca         1 18Z      -0.306300
     19 C19         -4.1820    -2.0980    -1.0480 ca         1 18Z       0.179400
     20 C20         -5.9110    -2.8860     0.1780 ca         1 18Z       0.394900
     21 C21         -4.1440    -2.0170     1.2900 ca         1 18Z       0.179400
     22 C22          2.6860    -0.3110    -0.0050 c3         1 18Z       0.222800
     23 C23          4.1960    -0.5100    -0.0240 c3         1 18Z       0.150800
     24 C24          5.9660    -2.0010     0.5920 c6         1 18Z       0.126300
     25 C25          6.3160    -3.4460     0.9200 c6         1 18Z       0.147800
     26 C26          4.6420    -4.1940    -0.6030 c6         1 18Z       0.147800
     27 C27          4.2860    -2.7490    -0.9280 c6         1 18Z       0.126300
     28 O28         -3.8830     2.5130    -0.2450 o          1 18Z      -0.648100
     29 O29          1.5960     5.1640    -0.4910 o          1 18Z      -0.445000
     30 O30          3.0750     3.6350    -0.3970 o          1 18Z      -0.445000
     31 HN01        -2.2600     4.9990     0.8120 hn         1 18Z       0.317500
     32 HN0A        -3.9360     4.8710     0.4870 hn         1 18Z       0.317500
     33 HN02         3.1580     1.7440    -0.2140 hn         1 18Z       0.534000
     34 HN03        -3.2190     0.7550    -0.0600 hn         1 18Z       0.542000
     35 HN06        -7.6260    -3.6340    -0.6310 hn         1 18Z       0.506000
     36 HN0B        -7.5960    -3.5800     1.0930 hn         1 18Z       0.506000
     37 HN08         6.6390    -4.1890    -0.9340 hn         1 18Z       0.401000
     38 H10         -0.5850     4.5380    -0.2680 ha         1 18Z       0.140000
     39 H13          0.2190    -0.2960     0.0190 ha         1 18Z       0.123000
     40 H17         -1.5960    -1.4140    -0.8350 h1         1 18Z       0.049200
     41 H17A        -1.5520    -1.3900     0.9210 h1         1 18Z       0.049200
     42 H19         -3.7480    -1.9210    -2.0280 h4         1 18Z       0.024100
     43 H21         -3.6780    -1.7740     2.2410 h4         1 18Z       0.024100
     44 H22          2.2860    -0.7030     0.9360 h1         1 18Z       0.053700
     45 H22A         2.2110    -0.8730    -0.8160 h1         1 18Z       0.053700
     46 H23          4.6280     0.0970     0.7770 h1         1 18Z       0.043700
     47 H23A         4.6070    -0.1240    -0.9720 h1         1 18Z       0.043700
     48 H24          6.6330    -1.6390    -0.2100 h1         1 18Z       0.035950
     49 H24A         6.1470    -1.3690     1.4650 h1         1 18Z       0.035950
     50 H25          5.7530    -3.7560     1.8070 h1         1 18Z       0.060950
     51 H25A         7.3760    -3.5180     1.1710 h1         1 18Z       0.060950
     52 H26          4.4620    -4.8210    -1.4790 h1         1 18Z       0.060950
     53 H26A         3.9760    -4.5510     0.1890 h1         1 18Z       0.060950
     54 H27          3.2260    -2.6950    -1.1840 h1         1 18Z       0.035950
     55 H27A         4.8470    -2.4220    -1.8220 h1         1 18Z       0.035950
@<TRIPOS>BOND
     1     1    16 1   
     2     1    31 1   
     3     1    32 1   
     4     2    14 1   
     5     2    22 1   
     6     2    33 1   
     7     3    12 1   
     8     3    17 1   
     9     3    34 1   
    10     4    19 ar  
    11     4    20 ar  
    12     5    20 ar  
    13     5    21 ar  
    14     6    20 1   
    15     6    35 1   
    16     6    36 1   
    17     7    23 1   
    18     7    24 1   
    19     7    27 1   
    20     8    25 1   
    21     8    26 1   
    22     8    37 1   
    23     9    15 1   
    24     9    29 1   
    25     9    30 1   
    26    10    11 ar  
    27    10    15 ar  
    28    10    38 1   
    29    11    12 ar  
    30    11    16 1   
    31    12    13 ar  
    32    13    14 ar  
    33    13    39 1   
    34    14    15 ar  
    35    16    28 2   
    36    17    18 1   
    37    17    40 1   
    38    17    41 1   
    39    18    19 ar  
    40    18    21 ar  
    41    19    42 1   
    42    21    43 1   
    43    22    23 1   
    44    22    44 1   
    45    22    45 1   
    46    23    46 1   
    47    23    47 1   
    48    24    25 1   
    49    24    48 1   
    50    24    49 1   
    51    25    50 1   
    52    25    51 1   
    53    26    27 1   
    54    26    52 1   
    55    26    53 1   
    56    27    54 1   
    57    27    55 1   
@<TRIPOS>SUBSTRUCTURE
     1 18Z         1 TEMP              0 ****  ****    0 ROOT
