@<TRIPOS>MOLECULE
190
   77    79     1     0     0
SMALL
No Charge or Current Charge


@<TRIPOS>ATOM
      1 C4          -5.3300    -3.1780    -0.4550 ca         1 190       0.090100
      2 C3          -6.3560    -2.5730     0.3080 ca         1 190      -0.079800
      3 C8          -6.2960    -1.0960     0.6900 c3         1 190      -0.047300
      4 C2          -7.4550    -3.3500     0.7200 ca         1 190      -0.110000
      5 C1          -7.5360    -4.7080     0.3690 ca         1 190      -0.108000
      6 C6          -6.5210    -5.3000    -0.3990 ca         1 190      -0.110000
      7 C5          -5.4130    -4.5400    -0.8200 ca         1 190      -0.079800
      8 C7          -4.3170    -5.1950    -1.6550 c3         1 190      -0.047300
      9 O9          -4.2470    -2.4330    -0.8580 os         1 190      -0.334100
     10 C10         -3.1460    -2.2430     0.0580 c3         1 190       0.081600
     11 C11         -2.1530    -1.1640    -0.4300 c          1 190       0.599100
     12 O12         -2.2420    -0.5980    -1.5140 o          1 190      -0.565100
     13 N13         -1.1540    -0.8590     0.4730 ns         1 190      -0.504900
     14 C14         -0.2100     0.2620     0.3440 c3         1 190       0.082700
     15 C16         -0.6090     1.4070     1.3220 c3         1 190      -0.055100
     16 C15         -2.1100     1.6970     1.3300 ca         1 190      -0.082300
     17 C42         -2.8820     1.4290     2.4780 ca         1 190      -0.103000
     18 C43         -4.2680     1.6620     2.4740 ca         1 190      -0.112000
     19 C44         -4.8940     2.1620     1.3200 ca         1 190      -0.086000
     20 C45         -4.1290     2.4300     0.1730 ca         1 190      -0.011900
     21 C46         -2.7420     2.2050     0.1770 ca         1 190      -0.068000
     22 C23          1.2620    -0.2440     0.4750 c3         1 190       0.148300
     23 O38          1.4690    -0.8580     1.7610 oh         1 190      -0.657000
     24 C24          2.3280     0.8670     0.2540 c3         1 190      -0.092400
     25 C25          3.8320     0.4150     0.2830 c3         1 190      -0.253700
     26 S30          4.2570    -0.7060    -1.1150 sy         1 190       1.029500
     27 O39          4.0590     0.0500    -2.3580 o          1 190      -0.516000
     28 O40          3.5520    -1.9730    -0.8830 o          1 190      -0.516000
     29 C31          6.0210    -1.0270    -0.9070 ca         1 190      -0.283500
     30 C32          6.4510    -1.9160     0.1000 ca         1 190       0.011500
     31 C33          7.8240    -2.1590     0.2770 ca         1 190      -0.174000
     32 C34          8.7610    -1.5180    -0.5470 ca         1 190       0.227000
     33 F37         10.0790    -1.7540    -0.3730 f          1 190      -0.167000
     34 C35          8.3380    -0.6340    -1.5500 ca         1 190      -0.174000
     35 C36          6.9670    -0.3850    -1.7350 ca         1 190       0.011500
     36 C26          4.8200     1.6310     0.3280 c3         1 190      -0.055400
     37 C27          4.7160     2.5790     1.5590 c3         1 190      -0.054700
     38 C28          4.8510     1.8290     2.9060 c3         1 190      -0.091600
     39 C29          5.7580     3.7160     1.4610 c3         1 190      -0.091600
     40 H81         -5.8910    -0.4840    -0.1250 hc         1 190       0.047367
     41 H82         -7.2910    -0.7000     0.9270 hc         1 190       0.047367
     42 H83         -5.6620    -0.9440     1.5720 hc         1 190       0.047367
     43 H2          -8.2500    -2.9030     1.3120 ha         1 190       0.112500
     44 H1          -8.3890    -5.3010     0.6910 ha         1 190       0.113000
     45 H6          -6.5980    -6.3520    -0.6670 ha         1 190       0.112500
     46 H71         -4.1040    -4.6080    -2.5560 hc         1 190       0.047367
     47 H72         -3.3860    -5.2800    -1.0820 hc         1 190       0.047367
     48 H73         -4.5990    -6.2030    -1.9800 hc         1 190       0.047367
     49 H101        -2.5920    -3.1800     0.1980 h1         1 190       0.046700
     50 H102        -3.5140    -1.9230     1.0410 h1         1 190       0.046700
     51 H13         -1.1330    -1.3940     1.3340 hn         1 190       0.315500
     52 H14         -0.3060     0.6690    -0.6720 h1         1 190       0.097700
     53 H161        -0.2800     1.1480     2.3360 hc         1 190       0.050200
     54 H162        -0.0670     2.3200     1.0510 hc         1 190       0.050200
     55 H42         -2.4100     1.0310     3.3740 ha         1 190       0.111000
     56 H43         -4.8570     1.4500     3.3640 ha         1 190       0.118000
     57 H44         -5.9670     2.3370     1.3140 ha         1 190       0.131000
     58 H46         -2.1620     2.4110    -0.7190 ha         1 190       0.135000
     59 H23          1.3790    -0.9990    -0.3140 h1         1 190       0.114700
     60 H38          1.5480    -0.1340     2.4180 ho         1 190       0.436000
     61 H241         2.1720     1.6230     1.0290 hc         1 190       0.062200
     62 H242         2.1250     1.3690    -0.7010 hc         1 190       0.062200
     63 H25          4.0020    -0.1960     1.1750 h1         1 190       0.106700
     64 H32          5.7300    -2.4140     0.7460 ha         1 190       0.141500
     65 H33          8.1620    -2.8410     1.0520 ha         1 190       0.140000
     66 H35          9.0720    -0.1420    -2.1820 ha         1 190       0.140000
     67 H36          6.6500     0.3070    -2.5140 ha         1 190       0.141500
     68 H261         4.6890     2.2270    -0.5840 hc         1 190       0.055200
     69 H262         5.8520     1.2610     0.3040 hc         1 190       0.055200
     70 H27          3.7350     3.0650     1.5460 hc         1 190       0.042700
     71 H281         4.8280     2.5340     3.7450 hc         1 190       0.036367
     72 H282         4.0270     1.1210     3.0490 hc         1 190       0.036367
     73 H283         5.7960     1.2740     2.9510 hc         1 190       0.036367
     74 H291         6.7790     3.3160     1.4850 hc         1 190       0.036367
     75 H292         5.6320     4.2790     0.5280 hc         1 190       0.036367
     76 H293         5.6460     4.4190     2.2960 hc         1 190       0.036367
     77 Br17        -4.9810     3.0910    -1.4050 br         1 190      -0.090100
@<TRIPOS>BOND
     1     1     2 ar  
     2     1     7 ar  
     3     1     9 1   
     4     2     3 1   
     5     2     4 ar  
     6     3    40 1   
     7     3    41 1   
     8     3    42 1   
     9     4     5 ar  
    10     4    43 1   
    11     5     6 ar  
    12     5    44 1   
    13     6     7 ar  
    14     6    45 1   
    15     7     8 1   
    16     8    46 1   
    17     8    47 1   
    18     8    48 1   
    19     9    10 1   
    20    10    11 1   
    21    10    49 1   
    22    10    50 1   
    23    11    12 2   
    24    11    13 1   
    25    13    14 1   
    26    13    51 1   
    27    14    15 1   
    28    14    22 1   
    29    14    52 1   
    30    15    16 1   
    31    15    53 1   
    32    15    54 1   
    33    16    17 ar  
    34    16    21 ar  
    35    17    18 ar  
    36    17    55 1   
    37    18    19 ar  
    38    18    56 1   
    39    19    20 ar  
    40    19    57 1   
    41    20    21 ar  
    42    20    77 1   
    43    21    58 1   
    44    22    23 1   
    45    22    24 1   
    46    22    59 1   
    47    23    60 1   
    48    24    25 1   
    49    24    61 1   
    50    24    62 1   
    51    25    26 1   
    52    25    36 1   
    53    25    63 1   
    54    26    27 2   
    55    26    28 2   
    56    26    29 1   
    57    29    30 ar  
    58    29    35 ar  
    59    30    31 ar  
    60    30    64 1   
    61    31    32 ar  
    62    31    65 1   
    63    32    33 1   
    64    32    34 ar  
    65    34    35 ar  
    66    34    66 1   
    67    35    67 1   
    68    36    37 1   
    69    36    68 1   
    70    36    69 1   
    71    37    38 1   
    72    37    39 1   
    73    37    70 1   
    74    38    71 1   
    75    38    72 1   
    76    38    73 1   
    77    39    74 1   
    78    39    75 1   
    79    39    76 1   
@<TRIPOS>SUBSTRUCTURE
     1 190         1 TEMP              0 ****  ****    0 ROOT
