@<TRIPOS>MOLECULE
190
   77    79     1     0     0
SMALL
bcc


@<TRIPOS>ATOM
      1 C4          -4.9190    -3.3840    -0.2560 ca         1 190       0.090100
      2 C3          -5.9580    -2.4530    -0.3370 ca         1 190      -0.079800
      3 C8          -5.6930    -1.0200    -0.6930 c3         1 190      -0.047300
      4 C2          -7.2530    -2.9000    -0.0850 ca         1 190      -0.128000
      5 C1          -7.5020    -4.2250     0.2370 ca         1 190      -0.126000
      6 C6          -6.4530    -5.1300     0.3010 ca         1 190      -0.128000
      7 C5          -5.1440    -4.7240     0.0590 ca         1 190      -0.079800
      8 C7          -4.0050    -5.7000     0.1140 c3         1 190      -0.047300
      9 O9          -3.6400    -2.9900    -0.5410 os         1 190      -0.310900
     10 C10         -2.9620    -2.3130     0.4880 c3         1 190       0.058400
     11 C11         -2.0040    -1.3080    -0.1300 c          1 190       0.666100
     12 O12         -2.1310    -0.9100    -1.2720 o          1 190      -0.565100
     13 N13         -1.0470    -0.8880     0.7180 ns         1 190      -0.571900
     14 C14         -0.1950     0.2480     0.4540 c3         1 190       0.082700
     15 C16         -0.5960     1.4380     1.3430 c3         1 190      -0.055100
     16 C15         -2.0730     1.7060     1.2740 ca         1 190      -0.082300
     17 C42         -2.9070     1.4010     2.3430 ca         1 190      -0.121000
     18 C43         -4.2760     1.6170     2.2590 ca         1 190      -0.130000
     19 C44         -4.8390     2.1340     1.1020 ca         1 190      -0.104000
     20 C45         -4.0010     2.4290     0.0360 ca         1 190      -0.011900
     21 C46         -2.6330     2.2270     0.1090 ca         1 190      -0.086000
     22 C23          1.2790    -0.1540     0.5940 c3         1 190       0.125100
     23 O38          1.5660    -0.6860     1.8700 oh         1 190      -0.594800
     24 C24          2.2070     1.0020     0.2330 c3         1 190      -0.092400
     25 C25          3.6930     0.6310     0.1690 c3         1 190      -0.142900
     26 S30          4.0780     0.0920    -1.5180 sy         1 190       1.060300
     27 O39          4.0830     1.2630    -2.3940 o          1 190      -0.586800
     28 O40          3.1990    -1.0260    -1.8620 o          1 190      -0.586800
     29 C31          5.7320    -0.5370    -1.4160 ca         1 190      -0.283500
     30 C32          5.9350    -1.7990    -0.8690 ca         1 190      -0.006500
     31 C33          7.2190    -2.3070    -0.7840 ca         1 190      -0.192000
     32 C34          8.2670    -1.5380    -1.2600 ca         1 190       0.191900
     33 F37          9.5070    -2.0280    -1.1860 f          1 190      -0.131900
     34 C35          8.0800    -0.2850    -1.8130 ca         1 190      -0.192000
     35 C36          6.7940     0.2220    -1.8900 ca         1 190      -0.006500
     36 C26          4.6170     1.7810     0.5650 c3         1 190      -0.055400
     37 C27          4.5670     2.1450     2.0530 c3         1 190      -0.054700
     38 C28          4.9020     0.9600     2.9520 c3         1 190      -0.091600
     39 C29          5.5230     3.3080     2.3080 c3         1 190      -0.091600
     40 H81         -4.9680    -0.9210    -1.4990 hc         1 190       0.047367
     41 H82         -6.6130    -0.5210    -0.9960 hc         1 190       0.047367
     42 H83         -5.2920    -0.4590     0.1540 hc         1 190       0.047367
     43 H2          -8.0750    -2.1960    -0.1470 ha         1 190       0.130500
     44 H1          -8.5150    -4.5550     0.4270 ha         1 190       0.131000
     45 H6          -6.6490    -6.1680     0.5440 ha         1 190       0.130500
     46 H71         -3.4630    -5.7420    -0.8310 hc         1 190       0.047367
     47 H72         -3.2800    -5.4420     0.8870 hc         1 190       0.047367
     48 H73         -4.3710    -6.7030     0.3320 hc         1 190       0.047367
     49 H101        -2.4240    -3.0170     1.1340 h1         1 190       0.046700
     50 H102        -3.6530    -1.7570     1.1330 h1         1 190       0.046700
     51 H13         -1.0160    -1.2820     1.6470 hn         1 190       0.315500
     52 H14         -0.3530     0.5250    -0.5890 h1         1 190       0.097700
     53 H161        -0.3200     1.2470     2.3840 hc         1 190       0.050200
     54 H162        -0.0440     2.3250     1.0260 hc         1 190       0.050200
     55 H42         -2.4830     0.9910     3.2520 ha         1 190       0.129000
     56 H43         -4.9150     1.3770     3.0990 ha         1 190       0.136000
     57 H44         -5.9070     2.2940     1.0380 ha         1 190       0.149000
     58 H46         -1.9960     2.4660    -0.7340 ha         1 190       0.153000
     59 H23          1.4450    -0.9770    -0.1040 h1         1 190       0.114700
     60 H38          1.5350     0.0190     2.5250 ho         1 190       0.397000
     61 H241         2.1000     1.7960     0.9770 hc         1 190       0.062200
     62 H242         1.8820     1.4590    -0.7070 hc         1 190       0.062200
     63 H25          3.8950    -0.2510     0.7850 h1         1 190       0.106700
     64 H32          5.1040    -2.3930    -0.5110 ha         1 190       0.159500
     65 H33          7.4020    -3.2850    -0.3610 ha         1 190       0.158000
     66 H35          8.9230     0.2860    -2.1780 ha         1 190       0.158000
     67 H36          6.6300     1.2000    -2.3190 ha         1 190       0.159500
     68 H261         4.3630     2.6610    -0.0310 hc         1 190       0.055200
     69 H262         5.6550     1.5250     0.3280 hc         1 190       0.055200
     70 H27          3.5580     2.4890     2.3030 hc         1 190       0.042700
     71 H281         4.9730     1.2750     3.9940 hc         1 190       0.036367
     72 H282         4.1460     0.1750     2.9060 hc         1 190       0.036367
     73 H283         5.8620     0.5150     2.6740 hc         1 190       0.036367
     74 H291         6.5540     3.0200     2.0900 hc         1 190       0.036367
     75 H292         5.2780     4.1680     1.6830 hc         1 190       0.036367
     76 H293         5.4790     3.6310     3.3480 hc         1 190       0.036367
     77 BR17        -4.7490     3.1110    -1.5610 br         1 190      -0.090100
@<TRIPOS>BOND
     1     1     2 ar  
     2     1     7 ar  
     3     1     9 1   
     4     2     3 1   
     5     2     4 ar  
     6     3    40 1   
     7     3    41 1   
     8     3    42 1   
     9     4     5 ar  
    10     4    43 1   
    11     5     6 ar  
    12     5    44 1   
    13     6     7 ar  
    14     6    45 1   
    15     7     8 1   
    16     8    46 1   
    17     8    47 1   
    18     8    48 1   
    19     9    10 1   
    20    10    11 1   
    21    10    49 1   
    22    10    50 1   
    23    11    12 2   
    24    11    13 1   
    25    13    14 1   
    26    13    51 1   
    27    14    15 1   
    28    14    22 1   
    29    14    52 1   
    30    15    16 1   
    31    15    53 1   
    32    15    54 1   
    33    16    17 ar  
    34    16    21 ar  
    35    17    18 ar  
    36    17    55 1   
    37    18    19 ar  
    38    18    56 1   
    39    19    20 ar  
    40    19    57 1   
    41    20    21 ar  
    42    20    77 1   
    43    21    58 1   
    44    22    23 1   
    45    22    24 1   
    46    22    59 1   
    47    23    60 1   
    48    24    25 1   
    49    24    61 1   
    50    24    62 1   
    51    25    26 1   
    52    25    36 1   
    53    25    63 1   
    54    26    27 2   
    55    26    28 2   
    56    26    29 1   
    57    29    30 ar  
    58    29    35 ar  
    59    30    31 ar  
    60    30    64 1   
    61    31    32 ar  
    62    31    65 1   
    63    32    33 1   
    64    32    34 ar  
    65    34    35 ar  
    66    34    66 1   
    67    35    67 1   
    68    36    37 1   
    69    36    68 1   
    70    36    69 1   
    71    37    38 1   
    72    37    39 1   
    73    37    70 1   
    74    38    71 1   
    75    38    72 1   
    76    38    73 1   
    77    39    74 1   
    78    39    75 1   
    79    39    76 1   
@<TRIPOS>SUBSTRUCTURE
     1 190         1 TEMP              0 ****  ****    0 ROOT
