@<TRIPOS>MOLECULE
192
   16    16     1     0     0
SMALL
bcc


@<TRIPOS>ATOM
      1 N           21.0380    31.3240     7.7220 n8         1 192      -0.870800
      2 O           22.8370    33.9140     9.3570 o          1 192      -0.836800
      3 CA          21.4000    32.7210     7.8720 cy         1 192       0.044200
      4 C           22.6810    32.8540     8.7190 c          1 192       0.946600
      5 CB1         21.4650    33.5330     6.5350 cy         1 192      -0.097400
      6 CG          20.0180    33.9990     6.7790 cy         1 192      -0.107400
      7 CB2         20.1690    33.5740     8.2520 cy         1 192      -0.097400
      8 OXT         23.4930    31.9070     8.6480 o          1 192      -0.836800
      9 H           20.3390    31.2160     6.9950 hn         1 192       0.323800
     10 HN2         21.8570    30.8170     7.4110 hn         1 192       0.323800
     11 HB11        22.1690    34.3660     6.5850 hc         1 192       0.043200
     12 HB12        21.6710    32.9590     5.6290 hc         1 192       0.043200
     13 HG1         19.7930    35.0470     6.5790 hc         1 192       0.017200
     14 HG2         19.2880    33.3900     6.2420 hc         1 192       0.017200
     15 HB21        19.3380    33.0330     8.7080 hc         1 192       0.043200
     16 HB22        20.4420    34.4100     8.8940 hc         1 192       0.043200
@<TRIPOS>BOND
     1     1     3 1   
     2     1     9 1   
     3     1    10 1   
     4     2     4 1   
     5     3     4 1   
     6     3     5 1   
     7     3     7 1   
     8     4     8 1   
     9     5     6 1   
    10     5    11 1   
    11     5    12 1   
    12     6     7 1   
    13     6    13 1   
    14     6    14 1   
    15     7    15 1   
    16     7    16 1   
@<TRIPOS>SUBSTRUCTURE
     1 192         1 TEMP              0 ****  ****    0 ROOT
