@<TRIPOS>MOLECULE
192
   16    16     1     0     0
SMALL
No Charge or Current Charge


@<TRIPOS>ATOM
      1 N           20.7740    31.1620     7.7850 n8         1 192      -0.981200
      2 O           22.5300    33.4160     9.9180 o          1 192      -0.731500
      3 CA          21.2980    32.5530     7.8810 cy         1 192       0.044200
      4 C           22.6080    33.0730     8.7410 c          1 192       0.736000
      5 CB1         21.5850    33.3840     6.5610 cy         1 192      -0.097400
      6 CG          20.0960    33.8570     6.6870 cy         1 192      -0.107400
      7 CB2         20.3210    33.7530     8.2350 cy         1 192      -0.097400
      8 OXT         23.7500    32.9930     8.2960 o          1 192      -0.731500
      9 H           20.0090    31.1300     7.1020 hn         1 192       0.379000
     10 HN2         21.4900    30.5480     7.3760 hn         1 192       0.379000
     11 HB11        22.2960    34.2200     6.6150 hc         1 192       0.043200
     12 HB12        21.8200    32.7970     5.6670 hc         1 192       0.043200
     13 HG1         19.8790    34.8590     6.3030 hc         1 192       0.017200
     14 HG2         19.3530    33.1600     6.2800 hc         1 192       0.017200
     15 HB21        19.4370    33.4900     8.8240 hc         1 192       0.043200
     16 HB22        20.7520    34.6700     8.6570 hc         1 192       0.043200
@<TRIPOS>BOND
     1     1     3 1   
     2     1     9 1   
     3     1    10 1   
     4     2     4 1   
     5     3     4 1   
     6     3     5 1   
     7     3     7 1   
     8     4     8 1   
     9     5     6 1   
    10     5    11 1   
    11     5    12 1   
    12     6     7 1   
    13     6    13 1   
    14     6    14 1   
    15     7    15 1   
    16     7    16 1   
@<TRIPOS>SUBSTRUCTURE
     1 192         1 TEMP              0 ****  ****    0 ROOT
