@<TRIPOS>MOLECULE
193
   27    26     1     0     0
SMALL
No Charge or Current Charge


@<TRIPOS>ATOM
      1 N           -2.4860    -0.7490    -0.1450 n8         1 193      -0.379000
      2 CA          -3.8720    -1.1360     0.1470 c3         1 193      -0.121000
      3 CB          -4.6860    -1.4250    -1.1470 c3         1 193      -0.141000
      4 CG          -4.3070    -2.7010    -1.9450 c3         1 193       0.000000
      5 ND          -2.9240    -2.6810    -2.4160 ns         1 193      -0.370000
      6 CE          -2.4070    -3.5840    -3.3490 c          1 193       0.308000
      7 OE          -3.0880    -4.4320    -3.9150 o          1 193      -0.424000
      8 CZ          -0.9220    -3.4310    -3.5800 c3         1 193      -0.190000
      9 CT          -0.0760    -4.0350    -2.4400 c3         1 193      -0.081000
     10 NH           1.3600    -3.8850    -2.7090 n8         1 193      -0.328000
     11 C           -3.8760    -2.2550     1.0970 c1         1 193      -0.130000
     12 O           -3.8790    -3.2600     1.9450 os         1 193       0.007000
     13 OXT         -4.6460    -3.0160     3.2200 o          1 193      -0.690000
     14 H           -2.4770     0.0910    -0.7240 hn         1 193       0.159000
     15 HN2         -2.0100    -0.4960     0.7220 hn         1 193       0.159000
     16 HA          -4.3370    -0.2760     0.6480 h1         1 193       0.059000
     17 HB2         -4.6120    -0.5580    -1.8160 hc         1 193       0.059000
     18 HB1         -5.7460    -1.5010    -0.8770 hc         1 193       0.059000
     19 HG2         -4.9730    -2.7900    -2.8140 h1         1 193       0.075000
     20 HG1         -4.4540    -3.5920    -1.3200 h1         1 193       0.075000
     21 HD          -2.2770    -2.0570    -1.9470 hn         1 193       0.281000
     22 HZ2         -0.6510    -3.9170    -4.5250 hc         1 193       0.099500
     23 HZ1         -0.6730    -2.3690    -3.7020 hc         1 193       0.099500
     24 HT2         -0.3010    -5.1050    -2.3340 h1         1 193       0.080000
     25 HT1         -0.3080    -3.5360    -1.4890 h1         1 193       0.080000
     26 HH           1.6020    -2.8940    -2.7580 hn         1 193       0.127000
     27 HH2          1.9000    -4.2700    -1.9330 hn         1 193       0.127000
@<TRIPOS>BOND
     1     1     2 1   
     2     1    14 1   
     3     1    15 1   
     4     2     3 1   
     5     2    11 1   
     6     2    16 1   
     7     3     4 1   
     8     3    17 1   
     9     3    18 1   
    10     4     5 1   
    11     4    19 1   
    12     4    20 1   
    13     5     6 1   
    14     5    21 1   
    15     6     7 1   
    16     6     8 1   
    17     8     9 1   
    18     8    22 1   
    19     8    23 1   
    20     9    10 1   
    21     9    24 1   
    22     9    25 1   
    23    10    26 1   
    24    10    27 1   
    25    11    12 1   
    26    12    13 1   
@<TRIPOS>SUBSTRUCTURE
     1 193         1 TEMP              0 ****  ****    0 ROOT
