@<TRIPOS>MOLECULE
193
   27    26     1     0     0
SMALL
abcg2


@<TRIPOS>ATOM
      1 N           -2.9050    -0.5630    -0.5040 n8         1 193      -0.379000
      2 CA          -4.1140    -1.2700    -0.0500 c3         1 193      -0.121000
      3 CB          -5.0220    -1.5590    -1.2500 c3         1 193      -0.141000
      4 CG          -4.5240    -2.6790    -2.1620 c3         1 193       0.000000
      5 ND          -3.1040    -2.5440    -2.3980 ns         1 193      -0.370000
      6 CE          -2.3300    -3.5320    -2.8530 c2         1 193       0.308000
      7 OE          -2.7660    -4.6050    -3.2640 o          1 193      -0.424000
      8 CZ          -0.8470    -3.2180    -2.8370 c3         1 193      -0.190000
      9 CT           0.0170    -4.4340    -2.5460 c3         1 193      -0.081000
     10 NH           1.4140    -4.0350    -2.4440 n8         1 193      -0.328000
     11 C           -3.8420    -2.5580     0.7040 c1         1 193      -0.130000
     12 O           -2.9430    -2.5310     1.5920 os         1 193       0.007000
     13 OXT         -2.1870    -1.3630     1.9170 o          1 193      -0.690000
     14 H           -3.1470     0.3790    -0.7830 hn         1 193       0.159000
     15 HN2         -2.3150    -0.5310     0.3310 hn         1 193       0.159000
     16 HA          -4.7050    -0.6650     0.6680 h1         1 193       0.059000
     17 HB2         -5.1510    -0.6330    -1.8190 hc         1 193       0.059000
     18 HB1         -6.0160    -1.8420    -0.8950 hc         1 193       0.059000
     19 HG2         -5.0850    -2.6520    -3.0990 h1         1 193       0.075000
     20 HG1         -4.7280    -3.6460    -1.6940 h1         1 193       0.075000
     21 HD          -2.6740    -1.7520    -1.9150 hn         1 193       0.281000
     22 HZ2         -0.5630    -2.8000    -3.8070 hc         1 193       0.099500
     23 HZ1         -0.6430    -2.4360    -2.1000 hc         1 193       0.099500
     24 HT2         -0.0870    -5.1510    -3.3650 h1         1 193       0.080000
     25 HT1         -0.3560    -4.9360    -1.6410 h1         1 193       0.080000
     26 HH           1.5200    -3.4440    -1.6270 hn         1 193       0.127000
     27 HH2          1.9770    -4.8580    -2.2660 hn         1 193       0.127000
@<TRIPOS>BOND
     1     1     2 1   
     2     1    14 1   
     3     1    15 1   
     4     2     3 1   
     5     2    11 1   
     6     2    16 1   
     7     3     4 1   
     8     3    17 1   
     9     3    18 1   
    10     4     5 1   
    11     4    19 1   
    12     4    20 1   
    13     5     6 1   
    14     5    21 1   
    15     6     7 1   
    16     6     8 1   
    17     8     9 1   
    18     8    22 1   
    19     8    23 1   
    20     9    10 1   
    21     9    24 1   
    22     9    25 1   
    23    10    26 1   
    24    10    27 1   
    25    11    12 1   
    26    12    13 1   
@<TRIPOS>SUBSTRUCTURE
     1 193         1 TEMP              0 ****  ****    0 ROOT
