@<TRIPOS>MOLECULE
194
   43    45     1     0     0
SMALL
No Charge or Current Charge


@<TRIPOS>ATOM
      1 C1          30.9830    -0.2850    51.7780 ca         1 194      -0.117000
      2 C2          29.6060    -0.5280    51.9030 ca         1 194      -0.169000
      3 C3          28.7930    -0.5540    50.7560 ca         1 194      -0.008900
      4 C4          29.3580    -0.3230    49.4930 ca         1 194      -0.116000
      5 C5          30.7440    -0.0840    49.3530 ca         1 194      -0.087600
      6 C6          31.5660    -0.0570    50.5110 ca         1 194      -0.078600
      7 C10         33.0460     0.2450    50.4180 c          1 194       0.733600
      8 O1          33.8270    -0.5170    50.9720 o          1 194      -0.727000
      9 O2          33.3900     1.2990    49.8980 o          1 194      -0.727000
     10 C20         31.3270     0.1090    47.9720 c          1 194       0.737600
     11 O5          32.2150    -0.6510    47.6070 o          1 194      -0.727500
     12 O4          30.8050     0.9350    47.2340 o          1 194      -0.727500
     13 O3          27.4370    -0.7730    50.8480 os         1 194      -0.265200
     14 C31         26.8730    -1.6230    51.7780 ca         1 194       0.157100
     15 C34         25.6920    -1.2290    52.4440 ca         1 194      -0.112000
     16 C35         25.1110    -2.1110    53.3840 ca         1 194      -0.087000
     17 C36         25.6980    -3.3630    53.6380 ca         1 194      -0.167000
     18 C37         26.8640    -3.7520    52.9620 ca         1 194      -0.086000
     19 C38         27.4500    -2.8830    52.0290 ca         1 194      -0.156000
     20 N1          25.1570     0.0580    52.1350 ns         1 194      -0.118000
     21 C44         24.0150     0.7360    52.5490 c          1 194       0.608700
     22 O6          23.1940     0.2600    53.3270 o          1 194      -0.598100
     23 C51         23.8290     2.1280    51.9720 ca         1 194      -0.147600
     24 C53         22.6860     2.8780    52.3380 ca         1 194      -0.002000
     25 C54         22.4710     4.1800    51.8250 ca         1 194      -0.194200
     26 C55         23.4170     4.7350    50.9350 ca         1 194      -0.042000
     27 C56         24.5530     3.9980    50.5680 ca         1 194      -0.129000
     28 C57         24.7630     2.7070    51.0780 ca         1 194      -0.035000
     29 N2          21.2550     4.9600    52.2220 no         1 194       0.697200
     30 O7          20.4520     4.4350    53.0050 o          1 194      -0.409500
     31 O8          21.1060     6.0950    51.7500 o          1 194      -0.409500
     32 H1          31.6050    -0.2580    52.6710 ha         1 194       0.102000
     33 H2          29.1770    -0.6860    52.8890 ha         1 194       0.079000
     34 H4          28.7230    -0.3430    48.6110 ha         1 194       0.105000
     35 H35         24.2100    -1.8490    53.9290 ha         1 194       0.109000
     36 H36         25.2440    -4.0360    54.3630 ha         1 194       0.096000
     37 H37         27.3120    -4.7240    53.1590 ha         1 194       0.104000
     38 H38         28.3500    -3.1840    51.4980 ha         1 194       0.160000
     39 HN1         25.7290     0.5760    51.4830 hn         1 194       0.174000
     40 H53         21.9610     2.4430    53.0250 ha         1 194       0.170000
     41 H55         23.2810     5.7340    50.5230 ha         1 194       0.143000
     42 H56         25.2780     4.4320    49.8830 ha         1 194       0.129000
     43 H57         25.6590     2.1760    50.7650 ha         1 194       0.139000
@<TRIPOS>BOND
     1     1     2 ar  
     2     1     6 ar  
     3     1    32 1   
     4     2     3 ar  
     5     2    33 1   
     6     3     4 ar  
     7     3    13 1   
     8     4     5 ar  
     9     4    34 1   
    10     5     6 ar  
    11     5    10 1   
    12     6     7 1   
    13     7     8 1   
    14     7     9 1   
    15    10    11 1   
    16    10    12 1   
    17    13    14 1   
    18    14    15 ar  
    19    14    19 ar  
    20    15    16 ar  
    21    15    20 1   
    22    16    17 ar  
    23    16    35 1   
    24    17    18 ar  
    25    17    36 1   
    26    18    19 ar  
    27    18    37 1   
    28    19    38 1   
    29    20    21 1   
    30    20    39 1   
    31    21    22 2   
    32    21    23 1   
    33    23    24 ar  
    34    23    28 ar  
    35    24    25 ar  
    36    24    40 1   
    37    25    26 ar  
    38    25    29 1   
    39    26    27 ar  
    40    26    41 1   
    41    27    28 ar  
    42    27    42 1   
    43    28    43 1   
    44    29    30 1   
    45    29    31 1   
@<TRIPOS>SUBSTRUCTURE
     1 194         1 TEMP              0 ****  ****    0 ROOT
