@<TRIPOS>MOLECULE
194
   43    45     1     0     0
SMALL
abcg2


@<TRIPOS>ATOM
      1 C1          31.3810    -0.0480    52.1020 ca         1 194      -0.117000
      2 C2          30.0280     0.0170    52.4040 ca         1 194      -0.169000
      3 C3          29.1140    -0.1020    51.3700 ca         1 194      -0.008900
      4 C4          29.5360    -0.2640    50.0610 ca         1 194      -0.116000
      5 C5          30.8940    -0.3250    49.7630 ca         1 194      -0.087600
      6 C6          31.8310    -0.2120    50.7950 ca         1 194      -0.078600
      7 C10         33.3250    -0.1810    50.5260 c          1 194       0.733600
      8 O1          34.0360    -0.8980    51.2580 o          1 194      -0.727000
      9 O2          33.7050     0.5990    49.6340 o          1 194      -0.727000
     10 C20         31.3030    -0.5940    48.3240 c          1 194       0.737600
     11 O5          32.0610    -1.5640    48.1470 o          1 194      -0.727500
     12 O4          30.7980     0.1430    47.4560 o          1 194      -0.727500
     13 O3          27.7620    -0.0230    51.6340 os         1 194      -0.265200
     14 C31         27.0850    -1.1560    51.9530 ca         1 194       0.157100
     15 C34         25.6900    -1.0380    51.9970 ca         1 194      -0.112000
     16 C35         24.9230    -2.1470    52.3330 ca         1 194      -0.087000
     17 C36         25.5300    -3.3580    52.6320 ca         1 194      -0.167000
     18 C37         26.9100    -3.4690    52.5750 ca         1 194      -0.086000
     19 C38         27.6900    -2.3750    52.2270 ca         1 194      -0.156000
     20 N1          25.1090     0.1960    51.6610 ns         1 194      -0.118000
     21 C44         24.1080     0.7920    52.3500 c          1 194       0.608700
     22 O6          23.6230     0.3390    53.3710 o          1 194      -0.598100
     23 C51         23.6190     2.0820    51.7700 ca         1 194      -0.147600
     24 C53         23.0500     3.0040    52.6390 ca         1 194      -0.002000
     25 C54         22.5680     4.1960    52.1300 ca         1 194      -0.194200
     26 C55         22.6110     4.4890    50.7740 ca         1 194      -0.042000
     27 C56         23.1620     3.5550    49.9140 ca         1 194      -0.129000
     28 C57         23.6650     2.3590    50.4060 ca         1 194      -0.035000
     29 N2          21.9890     5.1700    53.0470 no         1 194       0.697200
     30 O7          21.9780     4.9030    54.2250 o          1 194      -0.409500
     31 O8          21.5500     6.1940    52.5820 o          1 194      -0.409500
     32 H1          32.1010     0.0410    52.9060 ha         1 194       0.102000
     33 H2          29.6910     0.1550    53.4240 ha         1 194       0.079000
     34 H4          28.7990    -0.3470    49.2710 ha         1 194       0.105000
     35 H35         23.8450    -2.0690    52.3470 ha         1 194       0.109000
     36 H36         24.9210    -4.2120    52.8960 ha         1 194       0.096000
     37 H37         27.3920    -4.4120    52.7990 ha         1 194       0.104000
     38 H38         28.7660    -2.4740    52.1870 ha         1 194       0.160000
     39 HN1         25.5800     0.7370    50.9510 hn         1 194       0.174000
     40 H53         22.9970     2.7860    53.6970 ha         1 194       0.170000
     41 H55         22.2240     5.4200    50.3870 ha         1 194       0.143000
     42 H56         23.1930     3.7580    48.8530 ha         1 194       0.129000
     43 H57         24.0680     1.6390    49.7060 ha         1 194       0.139000
@<TRIPOS>BOND
     1     1     2 ar  
     2     1     6 ar  
     3     1    32 1   
     4     2     3 ar  
     5     2    33 1   
     6     3     4 ar  
     7     3    13 1   
     8     4     5 ar  
     9     4    34 1   
    10     5     6 ar  
    11     5    10 1   
    12     6     7 1   
    13     7     8 1   
    14     7     9 1   
    15    10    11 1   
    16    10    12 1   
    17    13    14 1   
    18    14    15 ar  
    19    14    19 ar  
    20    15    16 ar  
    21    15    20 1   
    22    16    17 ar  
    23    16    35 1   
    24    17    18 ar  
    25    17    36 1   
    26    18    19 ar  
    27    18    37 1   
    28    19    38 1   
    29    20    21 1   
    30    20    39 1   
    31    21    22 2   
    32    21    23 1   
    33    23    24 ar  
    34    23    28 ar  
    35    24    25 ar  
    36    24    40 1   
    37    25    26 ar  
    38    25    29 1   
    39    26    27 ar  
    40    26    41 1   
    41    27    28 ar  
    42    27    42 1   
    43    28    43 1   
    44    29    30 1   
    45    29    31 1   
@<TRIPOS>SUBSTRUCTURE
     1 194         1 TEMP              0 ****  ****    0 ROOT
