@<TRIPOS>MOLECULE
195
   59    62     1     0     0
SMALL
No Charge or Current Charge


@<TRIPOS>ATOM
      1 C1          26.8330    -1.6960    51.6390 ca         1 195       0.182100
      2 C2          25.5200    -1.5590    52.1490 ca         1 195      -0.083000
      3 C3          24.8910    -2.6660    52.7480 ca         1 195      -0.156000
      4 C4          25.5560    -3.8990    52.8800 ca         1 195      -0.096000
      5 C5          26.8680    -4.0260    52.3750 ca         1 195      -0.088000
      6 C6          27.4940    -2.9340    51.7500 ca         1 195      -0.130000
      7 O1          27.4210    -0.6560    50.9460 os         1 195      -0.244200
      8 C7          28.7700    -0.3870    50.9920 ca         1 195       0.010100
      9 C8          29.4220     0.0290    49.8220 ca         1 195      -0.122000
     10 C9          30.8040     0.3210    49.8290 ca         1 195      -0.074600
     11 C10         31.5320     0.2100    51.0430 ca         1 195      -0.096600
     12 C11         30.8640    -0.2050    52.2170 ca         1 195      -0.102000
     13 C12         29.4910    -0.4990    52.1940 ca         1 195      -0.193000
     14 C13         33.0020     0.5600    51.1120 c          1 195       0.725600
     15 O2          33.7640    -0.2490    51.6250 o          1 195      -0.728500
     16 O3          33.3460     1.6810    50.7640 o          1 195      -0.728500
     17 C14         31.4850     0.7170    48.5360 c          1 195       0.745600
     18 O4          32.4220     0.0340    48.1420 o          1 195      -0.732000
     19 O5          30.9930     1.6250    47.8780 o          1 195      -0.732000
     20 N1          24.7850    -0.3490    52.0450 ns         1 195      -0.146000
     21 C15         25.1660     0.9600    52.3140 c          1 195       0.614700
     22 C16         24.1540     2.0370    51.9710 ca         1 195      -0.141600
     23 O6          26.2440     1.2380    52.8290 o          1 195      -0.525100
     24 C17         24.4680     3.3900    52.2400 ca         1 195       0.005000
     25 C18         23.5530     4.4260    51.9350 ca         1 195      -0.190200
     26 C19         22.3090     4.0970    51.3530 ca         1 195      -0.042000
     27 C20         21.9910     2.7570    51.0830 ca         1 195      -0.136000
     28 C21         22.9010     1.7320    51.3860 ca         1 195      -0.040000
     29 N4          23.9000     5.8540    52.2270 no         1 195       0.697200
     30 O7          23.0710     6.7280    51.9440 o          1 195      -0.405500
     31 O8          25.0010     6.0960    52.7410 o          1 195      -0.405500
     32 N2          24.8450    -4.9600    53.5120 ns         1 195      -0.125000
     33 C22         25.2040    -6.2590    53.8660 c          1 195       0.608700
     34 O9          26.3230    -6.7220    53.6710 o          1 195      -0.571100
     35 C23         24.1200    -7.0940    54.5250 ca         1 195      -0.151600
     36 C24         22.8140    -6.5920    54.7640 ca         1 195      -0.027000
     37 C25         21.8270    -7.3990    55.3810 ca         1 195      -0.189200
     38 C26         22.1530    -8.7200    55.7610 ca         1 195      -0.040000
     39 C27         23.4410    -9.2210    55.5280 ca         1 195      -0.135000
     40 C28         24.4170    -8.4190    54.9160 ca         1 195      -0.020000
     41 N3          20.4490    -6.8600    55.6290 no         1 195       0.695200
     42 O10         20.2030    -5.6980    55.2810 o          1 195      -0.401500
     43 O11         19.6180    -7.6020    56.1710 o          1 195      -0.401500
     44 H3          23.8770    -2.5600    53.1270 ha         1 195       0.092000
     45 H5          27.4140    -4.9620    52.4370 ha         1 195       0.134000
     46 H6          28.4920    -3.0560    51.3360 ha         1 195       0.161000
     47 H8          28.8570     0.1130    48.8970 ha         1 195       0.105000
     48 H11         31.4130    -0.2840    53.1520 ha         1 195       0.106000
     49 H12         28.9910    -0.8010    53.1110 ha         1 195       0.085000
     50 HN1         23.8390    -0.4610    51.7080 hn         1 195       0.139000
     51 H17         25.4310     3.6340    52.6880 ha         1 195       0.176000
     52 H19         21.5830     4.8700    51.1070 ha         1 195       0.142000
     53 H20         21.0320     2.5110    50.6340 ha         1 195       0.122000
     54 H21         22.6150     0.7080    51.1580 ha         1 195       0.131000
     55 HN2         23.8930    -4.7170    53.7480 hn         1 195       0.143000
     56 H24         22.5540    -5.5760    54.4730 ha         1 195       0.161000
     57 H26         21.4150    -9.3650    56.2380 ha         1 195       0.146000
     58 H27         23.6870   -10.2390    55.8230 ha         1 195       0.126000
     59 H28         25.4080    -8.8350    54.7480 ha         1 195       0.147000
@<TRIPOS>BOND
     1     1     2 ar  
     2     1     6 ar  
     3     1     7 1   
     4     2     3 ar  
     5     2    20 1   
     6     3     4 ar  
     7     3    44 1   
     8     4     5 ar  
     9     4    32 1   
    10     5     6 ar  
    11     5    45 1   
    12     6    46 1   
    13     7     8 1   
    14     8     9 ar  
    15     8    13 ar  
    16     9    10 ar  
    17     9    47 1   
    18    10    11 ar  
    19    10    17 1   
    20    11    12 ar  
    21    11    14 1   
    22    12    13 ar  
    23    12    48 1   
    24    13    49 1   
    25    14    15 1   
    26    14    16 1   
    27    17    18 1   
    28    17    19 1   
    29    20    21 1   
    30    20    50 1   
    31    21    22 1   
    32    21    23 2   
    33    22    24 ar  
    34    22    28 ar  
    35    24    25 ar  
    36    24    51 1   
    37    25    26 ar  
    38    25    29 1   
    39    26    27 ar  
    40    26    52 1   
    41    27    28 ar  
    42    27    53 1   
    43    28    54 1   
    44    29    30 1   
    45    29    31 1   
    46    32    33 1   
    47    32    55 1   
    48    33    34 2   
    49    33    35 1   
    50    35    36 ar  
    51    35    40 ar  
    52    36    37 ar  
    53    36    56 1   
    54    37    38 ar  
    55    37    41 1   
    56    38    39 ar  
    57    38    57 1   
    58    39    40 ar  
    59    39    58 1   
    60    40    59 1   
    61    41    42 1   
    62    41    43 1   
@<TRIPOS>SUBSTRUCTURE
     1 195         1 TEMP              0 ****  ****    0 ROOT
