@<TRIPOS>MOLECULE
195
   59    62     1     0     0
SMALL
bcc


@<TRIPOS>ATOM
      1 C1          26.7220    -1.7790    51.4720 ca         1 195       0.182100
      2 C2          25.3920    -1.6280    51.8630 ca         1 195       0.009600
      3 C3          24.7410    -2.6720    52.5000 ca         1 195      -0.174000
      4 C4          25.3960    -3.8680    52.7770 ca         1 195      -0.003400
      5 C5          26.7360    -4.0020    52.4170 ca         1 195      -0.106000
      6 C6          27.3820    -2.9640    51.7670 ca         1 195      -0.148000
      7 O1          27.2900    -0.7790    50.7540 os         1 195      -0.244200
      8 C7          28.6000    -0.4380    50.9810 ca         1 195       0.010100
      9 C8          29.3840    -0.1600    49.8720 ca         1 195      -0.140000
     10 C9          30.7100     0.2350    50.0210 ca         1 195      -0.074600
     11 C10         31.2500     0.3640    51.3040 ca         1 195      -0.096600
     12 C11         30.4450     0.0690    52.4020 ca         1 195      -0.120000
     13 C12         29.1220    -0.3220    52.2610 ca         1 195      -0.211000
     14 C13         32.6520     0.8940    51.5410 c          1 195       0.936200
     15 O2          33.2760     0.4140    52.5100 o          1 195      -0.833800
     16 O3          33.0420     1.7930    50.7730 o          1 195      -0.833800
     17 C14         31.5410     0.4060    48.7600 c          1 195       0.956200
     18 O4          32.5260    -0.3470    48.6550 o          1 195      -0.837300
     19 O5          31.1190     1.2240    47.9210 o          1 195      -0.837300
     20 N1          24.6930    -0.4420    51.5750 ns         1 195      -0.472100
     21 C15         25.0740     0.7630    52.0600 c          1 195       0.681700
     22 C16         24.2540     1.9280    51.6060 ca         1 195      -0.141600
     23 O6          26.0110     0.9080    52.8220 o          1 195      -0.525100
     24 C17         24.2270     3.0520    52.4220 ca         1 195      -0.013000
     25 C18         23.4890     4.1520    52.0230 ca         1 195      -0.190200
     26 C19         22.7930     4.1760    50.8230 ca         1 195      -0.060000
     27 C20         22.8410     3.0570    50.0090 ca         1 195      -0.154000
     28 C21         23.5640     1.9380    50.3970 ca         1 195      -0.058000
     29 N4          23.4470     5.3230    52.8900 no         1 195       0.317200
     30 O7          22.8310     6.2880    52.5060 o          1 195      -0.215500
     31 O8          24.0290     5.2680    53.9470 o          1 195      -0.215500
     32 N2          24.6680    -4.8560    53.4550 ns         1 195      -0.451100
     33 C22         24.8830    -6.1930    53.4360 c          1 195       0.675700
     34 O9          25.7630    -6.7370    52.7950 o          1 195      -0.571100
     35 C23         23.9340    -6.9950    54.2700 ca         1 195      -0.151600
     36 C24         23.3810    -6.4990    55.4420 ca         1 195      -0.045000
     37 C25         22.5370    -7.3130    56.1810 ca         1 195      -0.189200
     38 C26         22.2230    -8.6020    55.7830 ca         1 195      -0.058000
     39 C27         22.7870    -9.0880    54.6140 ca         1 195      -0.153000
     40 C28         23.6470    -8.2980    53.8690 ca         1 195      -0.038000
     41 N3          21.9680    -6.7930    57.4190 no         1 195       0.315200
     42 O10         22.2530    -5.6650    57.7440 o          1 195      -0.211500
     43 O11         21.2420    -7.5170    58.0550 o          1 195      -0.211500
     44 H3          23.7060    -2.5390    52.7930 ha         1 195       0.110000
     45 H5          27.2880    -4.9020    52.6340 ha         1 195       0.152000
     46 H6          28.4160    -3.0940    51.4750 ha         1 195       0.179000
     47 H8          28.9550    -0.2680    48.8820 ha         1 195       0.123000
     48 H11         30.8550     0.1670    53.3990 ha         1 195       0.124000
     49 H12         28.5110    -0.5180    53.1320 ha         1 195       0.103000
     50 HN1         23.7930    -0.5320    51.1290 hn         1 195       0.305500
     51 H17         24.7740     3.0550    53.3550 ha         1 195       0.194000
     52 H19         22.2240     5.0420    50.5190 ha         1 195       0.160000
     53 H20         22.3150     3.0590    49.0650 ha         1 195       0.140000
     54 H21         23.6020     1.0860    49.7310 ha         1 195       0.149000
     55 HN2         23.8110    -4.5360    53.8790 hn         1 195       0.309500
     56 H24         23.6190    -5.5050    55.7960 ha         1 195       0.179000
     57 H26         21.5570    -9.2240    56.3630 ha         1 195       0.164000
     58 H27         22.5560   -10.0930    54.2890 ha         1 195       0.144000
     59 H28         24.0890    -8.6920    52.9650 ha         1 195       0.165000
@<TRIPOS>BOND
     1     1     2 ar  
     2     1     6 ar  
     3     1     7 1   
     4     2     3 ar  
     5     2    20 1   
     6     3     4 ar  
     7     3    44 1   
     8     4     5 ar  
     9     4    32 1   
    10     5     6 ar  
    11     5    45 1   
    12     6    46 1   
    13     7     8 1   
    14     8     9 ar  
    15     8    13 ar  
    16     9    10 ar  
    17     9    47 1   
    18    10    11 ar  
    19    10    17 1   
    20    11    12 ar  
    21    11    14 1   
    22    12    13 ar  
    23    12    48 1   
    24    13    49 1   
    25    14    15 1   
    26    14    16 1   
    27    17    18 1   
    28    17    19 1   
    29    20    21 1   
    30    20    50 1   
    31    21    22 1   
    32    21    23 2   
    33    22    24 ar  
    34    22    28 ar  
    35    24    25 ar  
    36    24    51 1   
    37    25    26 ar  
    38    25    29 1   
    39    26    27 ar  
    40    26    52 1   
    41    27    28 ar  
    42    27    53 1   
    43    28    54 1   
    44    29    30 1   
    45    29    31 1   
    46    32    33 1   
    47    32    55 1   
    48    33    34 2   
    49    33    35 1   
    50    35    36 ar  
    51    35    40 ar  
    52    36    37 ar  
    53    36    56 1   
    54    37    38 ar  
    55    37    41 1   
    56    38    39 ar  
    57    38    57 1   
    58    39    40 ar  
    59    39    58 1   
    60    40    59 1   
    61    41    42 1   
    62    41    43 1   
@<TRIPOS>SUBSTRUCTURE
     1 195         1 TEMP              0 ****  ****    0 ROOT
