@<TRIPOS>MOLECULE
196
   31    33     1     0     0
SMALL
No Charge or Current Charge


@<TRIPOS>ATOM
      1 C1          -4.6950    -0.3760    -0.2300 ca         1 196       0.119100
      2 C2          -4.0390     0.7040     0.3920 ca         1 196       0.070000
      3 C3          -2.6360     0.7440     0.4520 ca         1 196      -0.097000
      4 C4          -1.8530    -0.2980    -0.1070 cp         1 196      -0.048000
      5 C5          -2.5330    -1.3780    -0.7290 ca         1 196      -0.075000
      6 C6          -3.9380    -1.4160    -0.7900 ca         1 196      -0.128000
      7 O10         -6.0610    -0.4230    -0.2950 oh         1 196      -0.523100
      8 F11         -4.7570     1.7130     0.9390 f          1 196      -0.186000
      9 C12         -0.3580    -0.2600    -0.0440 cp         1 196      -0.050000
     10 C13          0.3470     0.9610    -0.1650 ca         1 196      -0.050000
     11 C14          1.7520     1.0030    -0.1060 ca         1 196      -0.077000
     12 C15          2.4970    -0.1860     0.0790 ca         1 196       0.041000
     13 C16          1.8050    -1.4190     0.2030 ca         1 196      -0.024000
     14 C17          0.3970    -1.4430     0.1400 ca         1 196      -0.040000
     15 C20          2.4100     2.2420    -0.2350 ca         1 196      -0.060000
     16 C21          3.8100     2.3040    -0.1790 ca         1 196      -0.128000
     17 C22          4.5570     1.1340     0.0040 ca         1 196       0.164100
     18 C23          3.9110    -0.1050     0.1330 ca         1 196      -0.220000
     19 C27          2.4930    -2.6690     0.3970 cg         1 196       0.328000
     20 N28          3.0400    -3.6890     0.5540 n1         1 196      -0.458000
     21 O29          5.9160     1.2050     0.0570 oh         1 196      -0.527100
     22 H3          -2.1560     1.5820     0.9490 ha         1 196       0.133000
     23 H5          -1.9670    -2.1880    -1.1820 ha         1 196       0.123000
     24 H6          -4.4380    -2.2510    -1.2740 ha         1 196       0.136000
     25 H10         -6.4130     0.3810     0.1450 ho         1 196       0.480000
     26 H13         -0.2060     1.8840    -0.3210 ha         1 196       0.119000
     27 H17         -0.1220    -2.3920     0.2510 ha         1 196       0.126000
     28 H20          1.8380     3.1560    -0.3780 ha         1 196       0.121000
     29 H21          4.3160     3.2610    -0.2780 ha         1 196       0.134000
     30 H23          4.5150    -0.9970     0.2740 ha         1 196       0.126000
     31 H29          6.2690     0.2990     0.1890 ho         1 196       0.473000
@<TRIPOS>BOND
     1     1     2 ar  
     2     1     6 ar  
     3     1     7 1   
     4     2     3 ar  
     5     2     8 1   
     6     3     4 ar  
     7     3    22 1   
     8     4     5 ar  
     9     4     9 1   
    10     5     6 ar  
    11     5    23 1   
    12     6    24 1   
    13     7    25 1   
    14     9    10 ar  
    15     9    14 ar  
    16    10    11 ar  
    17    10    26 1   
    18    11    12 ar  
    19    11    15 ar  
    20    12    13 ar  
    21    12    18 ar  
    22    13    14 ar  
    23    13    19 1   
    24    14    27 1   
    25    15    16 ar  
    26    15    28 1   
    27    16    17 ar  
    28    16    29 1   
    29    17    18 ar  
    30    17    21 1   
    31    18    30 1   
    32    19    20 3   
    33    21    31 1   
@<TRIPOS>SUBSTRUCTURE
     1 196         1 TEMP              0 ****  ****    0 ROOT
