@<TRIPOS>MOLECULE
196
   31    33     1     0     0
SMALL
abcg2


@<TRIPOS>ATOM
      1 C1          -4.6590    -0.3710    -0.2140 ca         1 196       0.119100
      2 C2          -3.9770     0.6980     0.3600 ca         1 196       0.070000
      3 C3          -2.6040     0.7530     0.4260 ca         1 196      -0.097000
      4 C4          -1.8410    -0.2890    -0.1030 cp         1 196      -0.048000
      5 C5          -2.5120    -1.3650    -0.6820 ca         1 196      -0.075000
      6 C6          -3.8950    -1.4070    -0.7380 ca         1 196      -0.128000
      7 O10         -5.9980    -0.4400    -0.2810 oh         1 196      -0.523100
      8 F11         -4.7060     1.7040     0.8810 f          1 196      -0.186000
      9 C12         -0.3690    -0.2430    -0.0490 cp         1 196      -0.050000
     10 C13          0.3230     0.9440    -0.1590 ca         1 196      -0.050000
     11 C14          1.7280     0.9990    -0.1010 ca         1 196      -0.077000
     12 C15          2.4810    -0.1890     0.0690 ca         1 196       0.041000
     13 C16          1.7500    -1.4050     0.1750 ca         1 196      -0.024000
     14 C17          0.3750    -1.4280     0.1200 ca         1 196      -0.040000
     15 C20          2.4220     2.2280    -0.2170 ca         1 196      -0.060000
     16 C21          3.7830     2.2760    -0.1600 ca         1 196      -0.128000
     17 C22          4.5280     1.0840     0.0150 ca         1 196       0.164100
     18 C23          3.8860    -0.1270     0.1250 ca         1 196      -0.220000
     19 C27          2.4470    -2.6340     0.3560 cg         1 196       0.328000
     20 N28          3.0170    -3.6260     0.5000 n1         1 196      -0.458000
     21 O29          5.8600     1.2190     0.0610 oh         1 196      -0.527100
     22 H3          -2.1380     1.6020     0.9090 ha         1 196       0.133000
     23 H5          -1.9540    -2.1820    -1.1200 ha         1 196       0.123000
     24 H6          -4.3960    -2.2490    -1.1990 ha         1 196       0.136000
     25 H10         -6.4110     0.3430     0.1010 ho         1 196       0.480000
     26 H13         -0.2160     1.8710    -0.3140 ha         1 196       0.119000
     27 H17         -0.1390    -2.3740     0.2280 ha         1 196       0.126000
     28 H20          1.8540     3.1390    -0.3530 ha         1 196       0.121000
     29 H21          4.3070     3.2190    -0.2480 ha         1 196       0.134000
     30 H23          4.4660    -1.0340     0.2560 ha         1 196       0.126000
     31 H29          6.2870     0.3660     0.2030 ho         1 196       0.473000
@<TRIPOS>BOND
     1     1     2 ar  
     2     1     6 ar  
     3     1     7 1   
     4     2     3 ar  
     5     2     8 1   
     6     3     4 ar  
     7     3    22 1   
     8     4     5 ar  
     9     4     9 1   
    10     5     6 ar  
    11     5    23 1   
    12     6    24 1   
    13     7    25 1   
    14     9    10 ar  
    15     9    14 ar  
    16    10    11 ar  
    17    10    26 1   
    18    11    12 ar  
    19    11    15 ar  
    20    12    13 ar  
    21    12    18 ar  
    22    13    14 ar  
    23    13    19 1   
    24    14    27 1   
    25    15    16 ar  
    26    15    28 1   
    27    16    17 ar  
    28    16    29 1   
    29    17    18 ar  
    30    17    21 1   
    31    18    30 1   
    32    19    20 3   
    33    21    31 1   
@<TRIPOS>SUBSTRUCTURE
     1 196         1 TEMP              0 ****  ****    0 ROOT
