@<TRIPOS>MOLECULE
197
   73    76     1     0     0
SMALL
abcg2


@<TRIPOS>ATOM
      1 C1           0.4730     0.2840    -2.4780 ca         1 197      -0.108000
      2 C2           0.8960     0.2690    -3.7990 ca         1 197      -0.097000
      3 C3          -0.0170     0.1480    -4.8370 ca         1 197      -0.099600
      4 C4          -1.3740     0.0450    -4.5250 ca         1 197      -0.159600
      5 C5          -1.7910     0.0380    -3.1990 ca         1 197      -0.105000
      6 C6          -0.8760     0.1680    -2.1580 ca         1 197      -0.126300
      7 C7          -1.3460     0.1940    -0.7330 c3         1 197      -0.021100
      8 C8          -2.1160     1.4920    -0.3970 c3         1 197       0.051700
      9 C9          -2.4410     1.5590     1.1000 c          1 197       0.572100
     10 N10         -3.2230     0.5580     1.5490 ns         1 197      -0.512900
     11 N11         -1.4760     2.6940    -0.8520 ns         1 197      -0.483900
     12 C12         -0.2250     3.0820    -0.5440 c          1 197       0.626100
     13 C13          0.1690     4.4350    -1.0860 c3         1 197      -0.178100
     14 O14          0.5440     2.4090     0.1250 o          1 197      -0.610100
     15 O15         -2.0190     2.4340     1.8320 o          1 197      -0.572100
     16 C16         -3.6460     0.4880     2.9310 c3         1 197       0.042700
     17 C17         -4.7080    -0.5960     3.1310 c3         1 197      -0.085400
     18 C18         -4.3590    -1.9900     2.6240 c3         1 197      -0.073400
     19 C19         -3.0750    -2.5800     3.1880 c3         1 197      -0.097400
     20 C20         -1.8140    -1.7960     2.8450 c3         1 197       0.105000
     21 N21         -1.5760    -0.6410     3.7060 n          1 197      -0.397800
     22 C22         -2.4670     0.3530     3.9030 c          1 197       0.567000
     23 C23         -0.3880    -0.7200     4.5370 c3         1 197       0.140300
     24 C24          0.8700    -0.7570     3.7050 ca         1 197      -0.114300
     25 O25         -2.3820     1.1470     4.8300 o          1 197      -0.561000
     26 C46          1.8780    -1.6740     3.9810 ca         1 197      -0.100000
     27 C47          3.0410    -1.7040     3.2250 ca         1 197      -0.099000
     28 C48          3.2240    -0.8240     2.1600 cp         1 197      -0.037000
     29 C49          2.2090     0.0960     1.8870 ca         1 197      -0.099000
     30 C50          1.0530     0.1310     2.6480 ca         1 197      -0.100000
     31 C55          4.4460    -0.8650     1.3330 cp         1 197      -0.032000
     32 C56          4.3810    -0.6530    -0.0460 ca         1 197      -0.099000
     33 C57          5.5270    -0.6880    -0.8270 ca         1 197      -0.113500
     34 C58          6.7630    -0.9360    -0.2440 ca         1 197      -0.113000
     35 C59          6.8410    -1.1510     1.1250 ca         1 197      -0.113500
     36 C60          5.6940    -1.1150     1.9060 ca         1 197      -0.099000
     37 C68          0.4320     0.0260    -6.2780 c          1 197       0.707600
     38 O69          1.6130     0.3040    -6.5430 o          1 197      -0.710000
     39 O70         -0.4490    -0.3680    -7.0750 o          1 197      -0.710000
     40 C71         -2.4170     0.0010    -5.5880 c          1 197       0.646500
     41 O72         -3.3230    -0.8020    -5.5830 o          1 197      -0.582100
     42 H1           1.2010     0.3800    -1.6820 ha         1 197       0.102000
     43 H2           1.9520     0.3360    -4.0260 ha         1 197       0.131000
     44 H5          -2.8490    -0.0510    -2.9750 ha         1 197       0.091000
     45 H71A        -0.5080     0.0650    -0.0510 hc         1 197       0.053200
     46 H72         -2.0260    -0.6460    -0.5700 hc         1 197       0.053200
     47 H8          -3.0670     1.4520    -0.9330 h1         1 197       0.053700
     48 H10         -3.6720    -0.0460     0.8790 hn         1 197       0.318500
     49 H11         -2.0420     3.3210    -1.3990 hn         1 197       0.314500
     50 H131         1.1960     4.4020    -1.4450 hc         1 197       0.058033
     51 H132        -0.4740     4.7830    -1.8930 hc         1 197       0.058033
     52 H133         0.1240     5.1680    -0.2800 hc         1 197       0.058033
     53 H16         -4.1030     1.4410     3.2100 h1         1 197       0.080700
     54 H171        -5.6230    -0.2570     2.6390 hc         1 197       0.051700
     55 H172        -4.9360    -0.6370     4.1990 hc         1 197       0.051700
     56 H181        -4.3000    -1.9970     1.5300 hc         1 197       0.039700
     57 H182        -5.1930    -2.6510     2.8670 hc         1 197       0.039700
     58 H191        -2.9560    -3.5900     2.7890 hc         1 197       0.047200
     59 H192        -3.1460    -2.6870     4.2750 hc         1 197       0.047200
     60 H201        -1.8120    -1.5080     1.7930 h1         1 197       0.058200
     61 H202        -0.9520    -2.4500     2.9710 h1         1 197       0.058200
     62 H231        -0.3720     0.1420     5.2020 h1         1 197       0.059700
     63 H232        -0.4370    -1.6100     5.1730 h1         1 197       0.059700
     64 H46          1.7520    -2.3850     4.7890 ha         1 197       0.122500
     65 H47          3.7980    -2.4460     3.4500 ha         1 197       0.124500
     66 H49          2.3230     0.8100     1.0820 ha         1 197       0.124500
     67 H50          0.2900     0.8590     2.4080 ha         1 197       0.122500
     68 H56          3.4220    -0.4790    -0.5190 ha         1 197       0.117500
     69 H57          5.4520    -0.5290    -1.8950 ha         1 197       0.112500
     70 H58          7.6570    -0.9620    -0.8540 ha         1 197       0.108000
     71 H59          7.8000    -1.3400     1.5910 ha         1 197       0.112500
     72 H60          5.7770    -1.2630     2.9760 ha         1 197       0.117500
     73 H71         -2.4010     0.8350    -6.3030 h4         1 197       0.006200
@<TRIPOS>BOND
     1     1     2 ar  
     2     1     6 ar  
     3     1    42 1   
     4     2     3 ar  
     5     2    43 1   
     6     3     4 ar  
     7     3    37 1   
     8     4     5 ar  
     9     4    40 1   
    10     5     6 ar  
    11     5    44 1   
    12     6     7 1   
    13     7     8 1   
    14     7    45 1   
    15     7    46 1   
    16     8     9 1   
    17     8    11 1   
    18     8    47 1   
    19     9    10 1   
    20     9    15 2   
    21    10    16 1   
    22    10    48 1   
    23    11    12 1   
    24    11    49 1   
    25    12    13 1   
    26    12    14 2   
    27    13    50 1   
    28    13    51 1   
    29    13    52 1   
    30    16    17 1   
    31    16    22 1   
    32    16    53 1   
    33    17    18 1   
    34    17    54 1   
    35    17    55 1   
    36    18    19 1   
    37    18    56 1   
    38    18    57 1   
    39    19    20 1   
    40    19    58 1   
    41    19    59 1   
    42    20    21 1   
    43    20    60 1   
    44    20    61 1   
    45    21    22 1   
    46    21    23 1   
    47    22    25 2   
    48    23    24 1   
    49    23    62 1   
    50    23    63 1   
    51    24    26 ar  
    52    24    30 ar  
    53    26    27 ar  
    54    26    64 1   
    55    27    28 ar  
    56    27    65 1   
    57    28    29 ar  
    58    28    31 1   
    59    29    30 ar  
    60    29    66 1   
    61    30    67 1   
    62    31    32 ar  
    63    31    36 ar  
    64    32    33 ar  
    65    32    68 1   
    66    33    34 ar  
    67    33    69 1   
    68    34    35 ar  
    69    34    70 1   
    70    35    36 ar  
    71    35    71 1   
    72    36    72 1   
    73    37    38 1   
    74    37    39 1   
    75    40    41 2   
    76    40    73 1   
@<TRIPOS>SUBSTRUCTURE
     1 197         1 TEMP              0 ****  ****    0 ROOT
