@<TRIPOS>MOLECULE
197
   73    76     1     0     0
SMALL
No Charge or Current Charge


@<TRIPOS>ATOM
      1 C1           0.8310    -0.2990    -1.7500 ca         1 197      -0.108000
      2 C2           1.5150    -0.4760    -2.9610 ca         1 197      -0.097000
      3 C3           0.8260    -0.4530    -4.1920 ca         1 197      -0.099600
      4 C4          -0.5820    -0.2340    -4.1950 ca         1 197      -0.159600
      5 C5          -1.2560    -0.0610    -2.9640 ca         1 197      -0.105000
      6 C6          -0.5570    -0.0860    -1.7430 ca         1 197      -0.126300
      7 C7          -1.2910     0.1150    -0.4170 c3         1 197      -0.021100
      8 C8          -2.1090     1.4390    -0.3320 c3         1 197       0.051700
      9 C9          -2.6080     1.7380     1.1180 c          1 197       0.572100
     10 N10         -3.2350     0.6810     1.7500 ns         1 197      -0.512900
     11 N11         -1.4020     2.6020    -0.9260 ns         1 197      -0.483900
     12 C12         -0.1500     3.0540    -0.5670 c          1 197       0.626100
     13 C13          0.3680     4.2110    -1.4100 c3         1 197      -0.178100
     14 O14          0.4990     2.5790     0.3530 o          1 197      -0.610100
     15 O15         -2.4540     2.8140     1.6820 o          1 197      -0.572100
     16 C16         -3.5780     0.6510     3.1890 c3         1 197       0.042700
     17 C17         -4.7810    -0.2790     3.4970 c3         1 197      -0.085400
     18 C18         -4.7250    -1.7090     2.9060 c3         1 197      -0.073400
     19 C19         -3.5400    -2.5730     3.3880 c3         1 197      -0.097400
     20 C20         -2.1650    -1.9900     3.0210 c3         1 197       0.105000
     21 N21         -1.6990    -0.9470     3.9610 n          1 197      -0.397800
     22 C22         -2.3120     0.3310     4.0450 c          1 197       0.567000
     23 C23         -0.3910    -1.1930     4.6110 c3         1 197       0.140300
     24 C24          0.7670    -0.9930     3.6390 ca         1 197      -0.114300
     25 O25         -1.8510     1.1910     4.7870 o          1 197      -0.561000
     26 C46          1.3780    -2.0960     3.0150 ca         1 197      -0.100000
     27 C47          2.4080    -1.9020     2.0780 ca         1 197      -0.099000
     28 C48          2.8570    -0.6020     1.7370 cp         1 197      -0.037000
     29 C49          2.2350     0.4960     2.3830 ca         1 197      -0.099000
     30 C50          1.2050     0.3040     3.3180 ca         1 197      -0.100000
     31 C55          3.9390    -0.3930     0.7190 cp         1 197      -0.032000
     32 C56          3.9320     0.7380    -0.1370 ca         1 197      -0.099000
     33 C57          4.9360     0.9270    -1.1030 ca         1 197      -0.113500
     34 C58          5.9720    -0.0110    -1.2310 ca         1 197      -0.113000
     35 C59          6.0040    -1.1360    -0.3930 ca         1 197      -0.113500
     36 C60          4.9980    -1.3260     0.5700 ca         1 197      -0.099000
     37 C68          1.6110    -0.6880    -5.4660 c          1 197       0.707600
     38 O69          2.6220    -0.0270    -5.6520 o          1 197      -0.710000
     39 O70          1.2180    -1.5540    -6.2360 o          1 197      -0.710000
     40 C71         -1.3640    -0.1550    -5.4900 c          1 197       0.646500
     41 O72         -2.5940    -0.1710    -5.5360 o          1 197      -0.582100
     42 H1           1.3820    -0.3280    -0.8150 ha         1 197       0.102000
     43 H2           2.5900    -0.6440    -2.9450 ha         1 197       0.131000
     44 H5          -2.3310     0.1050    -2.9560 ha         1 197       0.091000
     45 H71A        -0.5750     0.0900     0.4150 hc         1 197       0.053200
     46 H72         -1.9650    -0.7350    -0.2540 hc         1 197       0.053200
     47 H8          -3.0160     1.2910    -0.9310 h1         1 197       0.053700
     48 H10         -3.3810    -0.1580     1.2020 hn         1 197       0.318500
     49 H11         -1.8440     3.0850    -1.6990 hn         1 197       0.314500
     50 H131         1.3600     4.5530    -1.0940 hc         1 197       0.058033
     51 H132         0.3610     3.9130    -2.4650 hc         1 197       0.058033
     52 H133        -0.3660     5.0240    -1.3920 hc         1 197       0.058033
     53 H16         -3.8810     1.6650     3.4840 h1         1 197       0.080700
     54 H171        -5.6880     0.2050     3.1130 hc         1 197       0.051700
     55 H172        -4.9110    -0.3430     4.5840 hc         1 197       0.051700
     56 H181        -4.7130    -1.6560     1.8100 hc         1 197       0.039700
     57 H182        -5.6560    -2.2260     3.1700 hc         1 197       0.039700
     58 H191        -3.6310    -3.5620     2.9240 hc         1 197       0.047200
     59 H192        -3.6010    -2.7290     4.4720 hc         1 197       0.047200
     60 H201        -2.1590    -1.6160     1.9920 h1         1 197       0.058200
     61 H202        -1.4470    -2.8200     3.0440 h1         1 197       0.058200
     62 H231        -0.2610    -0.5330     5.4780 h1         1 197       0.059700
     63 H232        -0.3750    -2.2210     4.9960 h1         1 197       0.059700
     64 H46          1.0460    -3.1070     3.2440 ha         1 197       0.122500
     65 H47          2.8450    -2.7720     1.5940 ha         1 197       0.124500
     66 H49          2.5530     1.5110     2.1580 ha         1 197       0.124500
     67 H50          0.7390     1.1690     3.7850 ha         1 197       0.122500
     68 H56          3.1300     1.4690    -0.0670 ha         1 197       0.117500
     69 H57          4.9070     1.7980    -1.7530 ha         1 197       0.112500
     70 H58          6.7500     0.1350    -1.9780 ha         1 197       0.108000
     71 H59          6.8080    -1.8620    -0.4880 ha         1 197       0.112500
     72 H60          5.0490    -2.1990     1.2160 ha         1 197       0.117500
     73 H71         -0.7770    -0.0630    -6.4290 h4         1 197       0.006200
@<TRIPOS>BOND
     1     1     2 ar  
     2     1     6 ar  
     3     1    42 1   
     4     2     3 ar  
     5     2    43 1   
     6     3     4 ar  
     7     3    37 1   
     8     4     5 ar  
     9     4    40 1   
    10     5     6 ar  
    11     5    44 1   
    12     6     7 1   
    13     7     8 1   
    14     7    45 1   
    15     7    46 1   
    16     8     9 1   
    17     8    11 1   
    18     8    47 1   
    19     9    10 1   
    20     9    15 2   
    21    10    16 1   
    22    10    48 1   
    23    11    12 1   
    24    11    49 1   
    25    12    13 1   
    26    12    14 2   
    27    13    50 1   
    28    13    51 1   
    29    13    52 1   
    30    16    17 1   
    31    16    22 1   
    32    16    53 1   
    33    17    18 1   
    34    17    54 1   
    35    17    55 1   
    36    18    19 1   
    37    18    56 1   
    38    18    57 1   
    39    19    20 1   
    40    19    58 1   
    41    19    59 1   
    42    20    21 1   
    43    20    60 1   
    44    20    61 1   
    45    21    22 1   
    46    21    23 1   
    47    22    25 2   
    48    23    24 1   
    49    23    62 1   
    50    23    63 1   
    51    24    26 ar  
    52    24    30 ar  
    53    26    27 ar  
    54    26    64 1   
    55    27    28 ar  
    56    27    65 1   
    57    28    29 ar  
    58    28    31 1   
    59    29    30 ar  
    60    29    66 1   
    61    30    67 1   
    62    31    32 ar  
    63    31    36 ar  
    64    32    33 ar  
    65    32    68 1   
    66    33    34 ar  
    67    33    69 1   
    68    34    35 ar  
    69    34    70 1   
    70    35    36 ar  
    71    35    71 1   
    72    36    72 1   
    73    37    38 1   
    74    37    39 1   
    75    40    41 2   
    76    40    73 1   
@<TRIPOS>SUBSTRUCTURE
     1 197         1 TEMP              0 ****  ****    0 ROOT
