@<TRIPOS>MOLECULE
198
   43    44     1     0     0
SMALL
No Charge or Current Charge


@<TRIPOS>ATOM
      1 C16         29.1450     0.3910     9.8720 ca         1 198       0.012000
      2 C17         29.2780    -0.2480    11.1170 ca         1 198      -0.168500
      3 C18         30.5460    -0.6250    11.5810 ca         1 198       0.224000
      4 F18         30.6680    -1.2390    12.7780 f          1 198      -0.170000
      5 C19         31.6890    -0.3700    10.8090 ca         1 198      -0.168500
      6 C20         31.5670     0.2680     9.5620 ca         1 198       0.012000
      7 C15         30.2930     0.6530     9.0930 ca         1 198      -0.301500
      8 S14         30.1280     1.4610     7.4900 sy         1 198       1.091500
      9 O14         28.8710     2.2180     7.4820 o          1 198      -0.518500
     10 O15         31.4080     2.1020     7.1630 o          1 198      -0.518500
     11 C13         29.9220     0.0570     6.3640 c3         1 198      -0.309400
     12 C11         29.5630     0.4070     4.8930 c3         1 198       0.137000
     13 O11         30.6770     1.1250     4.3290 oh         1 198      -0.667000
     14 C12         29.4330    -0.8980     4.0720 c3         1 198      -0.119100
     15 C10         28.2110     1.2230     4.7850 c          1 198       0.598100
     16 O10         27.1320     0.7440     5.1240 o          1 198      -0.571100
     17 N9          28.3510     2.4960     4.2480 ns         1 198      -0.123000
     18 C1          27.4230     3.5500     4.0290 ca         1 198       0.013000
     19 C2          26.1330     3.5780     4.6020 ca         1 198      -0.099000
     20 C6          27.8350     4.6190     3.2200 ca         1 198      -0.147000
     21 C5          26.9710     5.6950     2.9680 ca         1 198      -0.047000
     22 C4          25.6790     5.7240     3.5260 ca         1 198      -0.001000
     23 C8          24.8420     6.8600     3.2270 cg         1 198       0.315000
     24 N8          24.1730     7.7840     2.9780 n1         1 198      -0.426000
     25 C3          25.2440     4.6560     4.3600 ca         1 198      -0.124300
     26 C7          23.8380     4.6570     5.0000 c3         1 198       0.346300
     27 F7B         23.6550     5.7260     5.8090 f          1 198      -0.105667
     28 F7C         22.8610     4.6910     4.0660 f          1 198      -0.105667
     29 F7A         23.5980     3.5630     5.7600 f          1 198      -0.105667
     30 H16         28.1540     0.6780     9.5210 ha         1 198       0.144000
     31 H17         28.3980    -0.4510    11.7230 ha         1 198       0.142000
     32 H19         32.6670    -0.6690    11.1770 ha         1 198       0.142000
     33 H20         32.4620     0.4580     8.9700 ha         1 198       0.144000
     34 H131        30.8510    -0.5200     6.4140 h1         1 198       0.112700
     35 H132        29.1200    -0.5500     6.7980 h1         1 198       0.112700
     36 H11         31.4570     0.5270     4.3420 ho         1 198       0.467000
     37 H121        29.2120    -0.6760     3.0210 hc         1 198       0.060367
     38 H122        30.3580    -1.4870     4.1100 hc         1 198       0.060367
     39 H123        28.6210    -1.5250     4.4620 hc         1 198       0.060367
     40 HN9         29.3020     2.7140     3.9770 hn         1 198       0.176000
     41 H2          25.8190     2.7680     5.2510 ha         1 198       0.170000
     42 H6          28.8290     4.6190     2.7770 ha         1 198       0.125000
     43 H5          27.3100     6.5120     2.3330 ha         1 198       0.133000
@<TRIPOS>BOND
     1     1     2 ar  
     2     1     7 ar  
     3     1    30 1   
     4     2     3 ar  
     5     2    31 1   
     6     3     4 1   
     7     3     5 ar  
     8     5     6 ar  
     9     5    32 1   
    10     6     7 ar  
    11     6    33 1   
    12     7     8 1   
    13     8     9 2   
    14     8    10 2   
    15     8    11 1   
    16    11    12 1   
    17    11    34 1   
    18    11    35 1   
    19    12    13 1   
    20    12    14 1   
    21    12    15 1   
    22    13    36 1   
    23    14    37 1   
    24    14    38 1   
    25    14    39 1   
    26    15    16 2   
    27    15    17 1   
    28    17    18 1   
    29    17    40 1   
    30    18    19 ar  
    31    18    20 ar  
    32    19    25 ar  
    33    19    41 1   
    34    20    21 ar  
    35    20    42 1   
    36    21    22 ar  
    37    21    43 1   
    38    22    23 1   
    39    22    25 ar  
    40    23    24 3   
    41    25    26 1   
    42    26    27 1   
    43    26    28 1   
    44    26    29 1   
@<TRIPOS>SUBSTRUCTURE
     1 198         1 TEMP              0 ****  ****    0 ROOT
