@<TRIPOS>MOLECULE
198
   43    44     1     0     0
SMALL
abcg2


@<TRIPOS>ATOM
      1 C16         29.1980     0.7490     9.6190 ca         1 198       0.012000
      2 C17         29.0380     0.1890    10.8770 ca         1 198      -0.168500
      3 C18         30.1350    -0.4060    11.4780 ca         1 198       0.224000
      4 F18         29.9800    -0.9540    12.7000 f          1 198      -0.170000
      5 C19         31.3830    -0.4640    10.8810 ca         1 198      -0.168500
      6 C20         31.5370     0.0960     9.6200 ca         1 198       0.012000
      7 C15         30.4460     0.6980     9.0020 ca         1 198      -0.301500
      8 S14         30.6330     1.3800     7.3760 sy         1 198       1.091500
      9 O14         29.7240     2.5030     7.2380 o          1 198      -0.518500
     10 O15         32.0450     1.6020     7.1380 o          1 198      -0.518500
     11 C13         30.0400     0.0420     6.3240 c3         1 198      -0.309400
     12 C11         29.6430     0.4680     4.9070 c3         1 198       0.137000
     13 O11         30.7180     1.1970     4.3220 oh         1 198      -0.667000
     14 C12         29.3170    -0.7840     4.0910 c3         1 198      -0.119100
     15 C10         28.3590     1.3340     4.9720 c          1 198       0.598100
     16 O10         27.3680     0.9310     5.5600 o          1 198      -0.571100
     17 N9          28.4470     2.5020     4.2850 ns         1 198      -0.123000
     18 C1          27.4920     3.4960     4.1180 ca         1 198       0.013000
     19 C2          26.1980     3.4110     4.6510 ca         1 198      -0.099000
     20 C6          27.8570     4.6270     3.3800 ca         1 198      -0.147000
     21 C5          26.9560     5.6510     3.1740 ca         1 198      -0.047000
     22 C4          25.6630     5.5750     3.7020 ca         1 198      -0.001000
     23 C8          24.7660     6.6560     3.4650 cg         1 198       0.315000
     24 N8          24.0620     7.5450     3.2560 n1         1 198      -0.426000
     25 C3          25.2970     4.4400     4.4450 ca         1 198      -0.124300
     26 C7          23.9080     4.3330     5.0230 c3         1 198       0.346300
     27 F7B         23.6250     5.3720     5.8410 f          1 198      -0.105667
     28 F7C         22.9630     4.3410     4.0540 f          1 198      -0.105667
     29 F7A         23.7270     3.2110     5.7370 f          1 198      -0.105667
     30 H16         28.3610     1.2220     9.1240 ha         1 198       0.144000
     31 H17         28.0850     0.2110    11.3880 ha         1 198       0.142000
     32 H19         32.2100    -0.9370    11.3940 ha         1 198       0.142000
     33 H20         32.4970     0.0710     9.1250 ha         1 198       0.144000
     34 H131        30.8410    -0.6960     6.2940 h1         1 198       0.112700
     35 H132        29.1750    -0.3800     6.8320 h1         1 198       0.112700
     36 H11         30.8960     0.8540     3.4370 ho         1 198       0.467000
     37 H121        29.0170    -0.4980     3.0800 hc         1 198       0.060367
     38 H122        30.2010    -1.4210     4.0360 hc         1 198       0.060367
     39 H123        28.5040    -1.3400     4.5530 hc         1 198       0.060367
     40 HN9         29.3660     2.6790     3.8960 hn         1 198       0.176000
     41 H2          25.9140     2.5440     5.2200 ha         1 198       0.170000
     42 H6          28.8550     4.6960     2.9650 ha         1 198       0.125000
     43 H5          27.2470     6.5200     2.6010 ha         1 198       0.133000
@<TRIPOS>BOND
     1     1     2 ar  
     2     1     7 ar  
     3     1    30 1   
     4     2     3 ar  
     5     2    31 1   
     6     3     4 1   
     7     3     5 ar  
     8     5     6 ar  
     9     5    32 1   
    10     6     7 ar  
    11     6    33 1   
    12     7     8 1   
    13     8     9 2   
    14     8    10 2   
    15     8    11 1   
    16    11    12 1   
    17    11    34 1   
    18    11    35 1   
    19    12    13 1   
    20    12    14 1   
    21    12    15 1   
    22    13    36 1   
    23    14    37 1   
    24    14    38 1   
    25    14    39 1   
    26    15    16 2   
    27    15    17 1   
    28    17    18 1   
    29    17    40 1   
    30    18    19 ar  
    31    18    20 ar  
    32    19    25 ar  
    33    19    41 1   
    34    20    21 ar  
    35    20    42 1   
    36    21    22 ar  
    37    21    43 1   
    38    22    23 1   
    39    22    25 ar  
    40    23    24 3   
    41    25    26 1   
    42    26    27 1   
    43    26    28 1   
    44    26    29 1   
@<TRIPOS>SUBSTRUCTURE
     1 198         1 TEMP              0 ****  ****    0 ROOT
