@<TRIPOS>MOLECULE
199
   55    59     1     0     0
SMALL
abcg2


@<TRIPOS>ATOM
      1 C01         -1.0260     1.2340    -0.0570 ca         1 199      -0.023000
      2 C02          0.1540     1.9670    -0.0340 cp         1 199      -0.107000
      3 C03          0.0650     3.3730    -0.0110 ca         1 199       0.372900
      4 N04         -1.0640     4.0600    -0.0040 nb         1 199      -0.681000
      5 C05         -2.1720     3.3370    -0.0250 ca         1 199       0.380500
      6 N06         -3.4430     3.8060    -0.0120 na         1 199      -0.321400
      7 C07         -4.3240     2.7540    -0.0300 cc         1 199      -0.157100
      8 C08         -3.6190     1.5800    -0.0560 cd         1 199       0.001400
      9 C09         -2.2320     1.9270    -0.0550 ca         1 199      -0.164800
     10 N10         -4.0710     0.2620    -0.0680 ns         1 199      -0.379100
     11 C11          3.7600     1.1610     0.7550 ca         1 199      -0.164000
     12 C12          4.0120     0.0280    -0.0350 ca         1 199       0.304000
     13 C13          2.9540    -0.4480    -0.8190 ca         1 199      -0.164000
     14 C14          1.7200     0.1850    -0.8210 ca         1 199      -0.070500
     15 C15          1.4710     1.3070    -0.0350 cp         1 199      -0.066000
     16 C16          2.5240     1.7780     0.7530 ca         1 199      -0.070500
     17 C17         -5.3530    -0.1290     0.0850 c          1 199       0.619700
     18 O18         -6.2810     0.6590     0.1810 o          1 199      -0.593100
     19 C19         -7.0310    -3.4680    -0.2280 ca         1 199      -0.172000
     20 C20         -6.0140    -4.2820     0.2520 ca         1 199       0.354900
     21 N21         -4.8430    -3.8140     0.6680 nb         1 199      -0.669000
     22 C22         -4.6370    -2.5060     0.6020 ca         1 199       0.358900
     23 C23         -5.5810    -1.6010     0.1230 ca         1 199      -0.205600
     24 C24         -6.8130    -2.1030    -0.2840 ca         1 199      -0.021000
     25 C25          5.9250    -0.7940     1.2330 c6         1 199       0.199300
     26 C26          7.4070    -1.0540     1.0480 c6         1 199       0.156800
     27 N27          7.6250    -2.1630     0.1440 n3         1 199      -0.713600
     28 C28          7.0100    -1.8800    -1.1340 c6         1 199       0.156800
     29 C29          5.5200    -1.6340    -0.9850 c6         1 199       0.199300
     30 N30          5.2740    -0.5560    -0.0480 nh         1 199      -0.790400
     31 H01         -0.9940     0.1500    -0.0550 ha         1 199       0.115000
     32 H03          0.9770     3.9610    -0.0120 h4         1 199       0.023100
     33 H06         -3.7080     4.7770     0.0190 hn         1 199       0.366000
     34 H07         -5.3840     2.9320    -0.0240 h4         1 199       0.245000
     35 H10         -3.3750    -0.4410    -0.2610 hn         1 199       0.326500
     36 H11          4.5420     1.5820     1.3730 ha         1 199       0.114000
     37 H13          3.0750    -1.3210    -1.4440 ha         1 199       0.114000
     38 H14          0.9400    -0.2110    -1.4600 ha         1 199       0.111000
     39 H16          2.3780     2.6420     1.3900 ha         1 199       0.111000
     40 H19         -7.9690    -3.8980    -0.5490 ha         1 199       0.130000
     41 H20         -6.1540    -5.3550     0.3070 h4         1 199       0.023100
     42 H22         -3.6780    -2.1650     0.9760 h4         1 199       0.019100
     43 H24         -7.5850    -1.4370    -0.6460 ha         1 199       0.141000
     44 H251         5.8090     0.0690     1.8850 h1         1 199       0.044950
     45 H252         5.4650    -1.6520     1.7450 h1         1 199       0.044950
     46 H261         7.8410    -1.2920     2.0220 h1         1 199       0.040200
     47 H262         7.8960    -0.1310     0.6910 h1         1 199       0.040200
     48 H281         7.4720    -1.0040    -1.6240 h1         1 199       0.040200
     49 H282         7.1540    -2.7320    -1.8020 h1         1 199       0.040200
     50 H291         5.1250    -1.3640    -1.9650 h1         1 199       0.044950
     51 H292         5.0220    -2.5660    -0.6750 h1         1 199       0.044950
     52 H311         9.6180    -1.6370    -0.4100 h1         1 199       0.032033
     53 H312         9.4560    -2.7280     0.9750 h1         1 199       0.032033
     54 H313         9.1600    -3.3290    -0.6570 h1         1 199       0.032033
     55 C31          9.0300    -2.4710     0.0040 c3         1 199       0.152100
@<TRIPOS>BOND
     1     1     2 ar  
     2     1     9 ar  
     3     1    31 1   
     4     2     3 ar  
     5     2    15 1   
     6     3     4 ar  
     7     3    32 1   
     8     4     5 ar  
     9     5     6 1   
    10     5     9 ar  
    11     6     7 1   
    12     6    33 1   
    13     7     8 2   
    14     7    34 1   
    15     8     9 1   
    16     8    10 1   
    17    10    17 1   
    18    10    35 1   
    19    11    12 ar  
    20    11    16 ar  
    21    11    36 1   
    22    12    13 ar  
    23    12    30 1   
    24    13    14 ar  
    25    13    37 1   
    26    14    15 ar  
    27    14    38 1   
    28    15    16 ar  
    29    16    39 1   
    30    17    18 2   
    31    17    23 1   
    32    19    20 ar  
    33    19    24 ar  
    34    19    40 1   
    35    20    21 ar  
    36    20    41 1   
    37    21    22 ar  
    38    22    23 ar  
    39    22    42 1   
    40    23    24 ar  
    41    24    43 1   
    42    25    26 1   
    43    25    30 1   
    44    25    44 1   
    45    25    45 1   
    46    26    27 1   
    47    26    46 1   
    48    26    47 1   
    49    27    28 1   
    50    27    55 1   
    51    28    29 1   
    52    28    48 1   
    53    28    49 1   
    54    29    30 1   
    55    29    50 1   
    56    29    51 1   
    57    52    55 1   
    58    53    55 1   
    59    54    55 1   
@<TRIPOS>SUBSTRUCTURE
     1 199         1 TEMP              0 ****  ****    0 ROOT
