@<TRIPOS>MOLECULE
199
   55    59     1     0     0
SMALL
No Charge or Current Charge


@<TRIPOS>ATOM
      1 C01         -1.1320     1.3540    -0.0140 ca         1 199      -0.023000
      2 C02          0.1010     2.0560    -0.0200 cp         1 199      -0.107000
      3 C03          0.0330     3.4830    -0.0350 ca         1 199       0.372900
      4 N04         -1.1230     4.2000    -0.0440 nb         1 199      -0.681000
      5 C05         -2.2680     3.4980    -0.0370 ca         1 199       0.380500
      6 N06         -3.5760     3.9470    -0.0400 na         1 199      -0.321400
      7 C07         -4.4970     2.8740    -0.0250 cc         1 199      -0.157100
      8 C08         -3.6910     1.7500    -0.0140 cd         1 199       0.001400
      9 C09         -2.3010     2.1240    -0.0220 ca         1 199      -0.164800
     10 N10         -4.1130     0.4290     0.0020 ns         1 199      -0.379100
     11 C11          3.7820     1.2060     0.6310 ca         1 199      -0.164000
     12 C12          3.9180    -0.0450     0.0020 ca         1 199       0.304000
     13 C13          2.7940    -0.6030    -0.6380 ca         1 199      -0.164000
     14 C14          1.5620     0.0730    -0.6440 ca         1 199      -0.070500
     15 C15          1.4130     1.3330    -0.0130 cp         1 199      -0.066000
     16 C16          2.5520     1.8860     0.6240 ca         1 199      -0.070500
     17 C17         -5.4040    -0.0780     0.0110 c          1 199       0.619700
     18 O18         -6.3920     0.6440     0.0050 o          1 199      -0.593100
     19 C19         -6.9170    -3.5730     0.0540 ca         1 199      -0.172000
     20 C20         -5.7410    -4.3370     0.0600 ca         1 199       0.354900
     21 N21         -4.5090    -3.7800     0.0500 nb         1 199      -0.669000
     22 C22         -4.4210    -2.4300     0.0350 ca         1 199       0.358900
     23 C23         -5.5440    -1.5780     0.0280 ca         1 199      -0.205600
     24 C24         -6.8240    -2.1730     0.0380 ca         1 199      -0.021000
     25 C25          5.8570    -0.9810     1.3230 c6         1 199       0.199300
     26 C26          7.3970    -1.2040     1.1550 c6         1 199       0.156800
     27 N27          7.7250    -2.2490     0.1380 n3         1 199      -0.713600
     28 C28          7.0820    -1.9030    -1.1670 c6         1 199       0.156800
     29 C29          5.5370    -1.6960    -1.0480 c6         1 199       0.199300
     30 N30          5.1670    -0.7100     0.0200 nh         1 199      -0.790400
     31 H01         -1.1720     0.2680     0.0120 ha         1 199       0.115000
     32 H03          0.9470     4.0750    -0.0540 h4         1 199       0.023100
     33 H06         -3.8180     4.9300    -0.0510 hn         1 199       0.366000
     34 H07         -5.5770     3.0000    -0.0250 h4         1 199       0.245000
     35 H10         -3.3970    -0.2840     0.0090 hn         1 199       0.326500
     36 H11          4.6370     1.6610     1.1200 ha         1 199       0.114000
     37 H13          2.8640    -1.5700    -1.1270 ha         1 199       0.114000
     38 H14          0.7180    -0.3830    -1.1570 ha         1 199       0.111000
     39 H16          2.4830     2.8460     1.1300 ha         1 199       0.111000
     40 H19         -7.8850    -4.0660     0.0620 ha         1 199       0.130000
     41 H20         -5.7850    -5.4250     0.0720 h4         1 199       0.023100
     42 H22         -3.4060    -2.0370     0.0280 h4         1 199       0.019100
     43 H24         -7.7300    -1.5670     0.0340 ha         1 199       0.141000
     44 H251         5.7060    -0.1510     2.0270 h1         1 199       0.044950
     45 H252         5.4230    -1.8790     1.7870 h1         1 199       0.044950
     46 H261         7.8170    -1.4790     2.1330 h1         1 199       0.040200
     47 H262         7.8550    -0.2450     0.8690 h1         1 199       0.040200
     48 H281         7.5250    -0.9800    -1.5700 h1         1 199       0.040200
     49 H282         7.2710    -2.6960    -1.9060 h1         1 199       0.040200
     50 H291         5.1600    -1.3570    -2.0240 h1         1 199       0.044950
     51 H292         5.0680    -2.6670    -0.8340 h1         1 199       0.044950
     52 H311         9.6970    -1.5810    -0.3300 h1         1 199       0.032033
     53 H312         9.6080    -2.7830     0.9790 h1         1 199       0.032033
     54 H313         9.3790    -3.2920    -0.7070 h1         1 199       0.032033
     55 C31          9.1790    -2.4870     0.0130 c3         1 199       0.152100
@<TRIPOS>BOND
     1     1     2 ar  
     2     1     9 ar  
     3     1    31 1   
     4     2     3 ar  
     5     2    15 1   
     6     3     4 ar  
     7     3    32 1   
     8     4     5 ar  
     9     5     6 1   
    10     5     9 ar  
    11     6     7 1   
    12     6    33 1   
    13     7     8 2   
    14     7    34 1   
    15     8     9 1   
    16     8    10 1   
    17    10    17 1   
    18    10    35 1   
    19    11    12 ar  
    20    11    16 ar  
    21    11    36 1   
    22    12    13 ar  
    23    12    30 1   
    24    13    14 ar  
    25    13    37 1   
    26    14    15 ar  
    27    14    38 1   
    28    15    16 ar  
    29    16    39 1   
    30    17    18 2   
    31    17    23 1   
    32    19    20 ar  
    33    19    24 ar  
    34    19    40 1   
    35    20    21 ar  
    36    20    41 1   
    37    21    22 ar  
    38    22    23 ar  
    39    22    42 1   
    40    23    24 ar  
    41    24    43 1   
    42    25    26 1   
    43    25    30 1   
    44    25    44 1   
    45    25    45 1   
    46    26    27 1   
    47    26    46 1   
    48    26    47 1   
    49    27    28 1   
    50    27    55 1   
    51    28    29 1   
    52    28    48 1   
    53    28    49 1   
    54    29    30 1   
    55    29    50 1   
    56    29    51 1   
    57    52    55 1   
    58    53    55 1   
    59    54    55 1   
@<TRIPOS>SUBSTRUCTURE
     1 199         1 TEMP              0 ****  ****    0 ROOT
