@<TRIPOS>MOLECULE
19A
   37    39     1     0     0
SMALL
No Charge or Current Charge


@<TRIPOS>ATOM
      1 C1          -9.3370    13.4350    41.4260 c3         1 19A       0.089300
      2 N2         -10.7810    13.3250    41.1210 n          1 19A      -0.402800
      3 C3         -11.5780    14.5530    41.3360 c3         1 19A       0.089300
      4 C4         -11.2470    12.2150    40.3680 c          1 19A       0.641700
      5 O5         -10.4460    11.4630    39.8250 o          1 19A      -0.639100
      6 C6         -12.7140    11.9560    40.2330 cc         1 19A      -0.252600
      7 C7         -13.7550    12.4780    40.9710 cd         1 19A      -0.104000
      8 C8         -14.9680    11.9090    40.5250 cd         1 19A      -0.216500
      9 C9         -14.6970    10.9790    39.5560 cc         1 19A      -0.133000
     10 N10        -13.3130    11.0150    39.3810 na         1 19A      -0.077000
     11 C12        -16.3150    12.1230    41.0250 cd         1 19A       0.364500
     12 N13        -17.2770    11.2650    40.7250 nc         1 19A      -0.525800
     13 N14        -18.3240    11.6740    41.5270 na         1 19A      -0.014200
     14 C16        -18.0220    12.7800    42.3130 cc         1 19A      -0.150000
     15 C17        -16.7610    13.1490    41.9210 cd         1 19A      -0.155000
     16 C18        -16.0620    14.3350    42.4520 ca         1 19A       0.010000
     17 C19        -15.2040    15.0990    41.6330 ca         1 19A      -0.104500
     18 C20        -14.5840    16.2600    42.1260 ca         1 19A      -0.114500
     19 C21        -14.8300    16.6830    43.4410 ca         1 19A      -0.116000
     20 C22        -15.7130    15.9550    44.2540 ca         1 19A      -0.114500
     21 C23        -16.3360    14.7960    43.7570 ca         1 19A      -0.104500
     22 H11         -8.7880    13.7250    40.5210 h1         1 19A       0.044533
     23 H12         -9.1680    14.1900    42.2050 h1         1 19A       0.044533
     24 H13         -8.9550    12.4710    41.7870 h1         1 19A       0.044533
     25 H31        -12.0490    14.5260    42.3260 h1         1 19A       0.044533
     26 H32        -10.9270    15.4360    41.2880 h1         1 19A       0.044533
     27 H33        -12.3420    14.6600    40.5560 h1         1 19A       0.044533
     28 H7         -13.6590    13.1410    41.8200 ha         1 19A       0.141000
     29 H9         -15.3450    10.3130    38.9970 h4         1 19A       0.159000
     30 HN10       -12.7990    10.4280    38.7290 hn         1 19A       0.369000
     31 HN14       -19.2150    11.1770    41.5190 hn         1 19A       0.374000
     32 H16        -18.7300    13.2310    42.9990 h4         1 19A       0.155000
     33 H19        -15.0360    14.8060    40.5990 ha         1 19A       0.116500
     34 H20        -13.9210    16.8370    41.4840 ha         1 19A       0.111000
     35 H21        -14.3510    17.5820    43.8240 ha         1 19A       0.111000
     36 H22        -15.9180    16.2890    45.2690 ha         1 19A       0.111000
     37 H23        -17.0180    14.2450    44.4000 ha         1 19A       0.116500
@<TRIPOS>BOND
     1     1     2 1   
     2     1    22 1   
     3     1    23 1   
     4     1    24 1   
     5     2     3 1   
     6     2     4 1   
     7     3    25 1   
     8     3    26 1   
     9     3    27 1   
    10     4     5 2   
    11     4     6 1   
    12     6     7 2   
    13     6    10 1   
    14     7     8 1   
    15     7    28 1   
    16     8     9 2   
    17     8    11 1   
    18     9    10 1   
    19     9    29 1   
    20    10    30 1   
    21    11    12 2   
    22    11    15 1   
    23    12    13 1   
    24    13    14 1   
    25    13    31 1   
    26    14    15 2   
    27    14    32 1   
    28    15    16 1   
    29    16    17 ar  
    30    16    21 ar  
    31    17    18 ar  
    32    17    33 1   
    33    18    19 ar  
    34    18    34 1   
    35    19    20 ar  
    36    19    35 1   
    37    20    21 ar  
    38    20    36 1   
    39    21    37 1   
@<TRIPOS>SUBSTRUCTURE
     1 19A         1 TEMP              0 ****  ****    0 ROOT
