@<TRIPOS>MOLECULE
19A
   37    39     1     0     0
SMALL
abcg2


@<TRIPOS>ATOM
      1 C1          -9.2050    13.2000    41.2780 c3         1 19A       0.089300
      2 N2         -10.6540    13.1860    41.1390 n          1 19A      -0.402800
      3 C3         -11.3600    14.2720    41.8050 c3         1 19A       0.089300
      4 C4         -11.2320    12.2480    40.3520 c          1 19A       0.641700
      5 O5         -10.5590    11.4890    39.6320 o          1 19A      -0.639100
      6 C6         -12.6970    12.1030    40.3480 cc         1 19A      -0.252600
      7 C7         -13.7300    12.4440    41.2070 cd         1 19A      -0.104000
      8 C8         -14.9360    11.9270    40.6660 cd         1 19A      -0.216500
      9 C9         -14.5980    11.2770    39.4860 cc         1 19A      -0.133000
     10 N10        -13.2590    11.3870    39.3150 na         1 19A      -0.077000
     11 C12        -16.2710    12.0490    41.2420 cd         1 19A       0.364500
     12 N13        -17.1670    11.0650    41.1080 nc         1 19A      -0.525800
     13 N14        -18.2610    11.4910    41.7680 na         1 19A      -0.014200
     14 C16        -18.0930    12.7030    42.3300 cc         1 19A      -0.150000
     15 C17        -16.8120    13.1220    42.0120 cd         1 19A      -0.155000
     16 C18        -16.2050    14.4110    42.3720 ca         1 19A       0.010000
     17 C19        -15.4760    15.1530    41.4360 ca         1 19A      -0.104500
     18 C20        -14.9120    16.3750    41.7790 ca         1 19A      -0.114500
     19 C21        -15.0720    16.8860    43.0650 ca         1 19A      -0.116000
     20 C22        -15.8040    16.1640    44.0020 ca         1 19A      -0.114500
     21 C23        -16.3610    14.9360    43.6600 ca         1 19A      -0.104500
     22 H11         -8.7590    13.9890    40.6660 h1         1 19A       0.044533
     23 H12         -8.9500    13.3860    42.3230 h1         1 19A       0.044533
     24 H13         -8.7980    12.2420    40.9710 h1         1 19A       0.044533
     25 H31        -11.6170    14.0190    42.8370 h1         1 19A       0.044533
     26 H32        -10.7070    15.1450    41.8190 h1         1 19A       0.044533
     27 H33        -12.2660    14.5320    41.2660 h1         1 19A       0.044533
     28 H7         -13.6440    12.9820    42.1330 ha         1 19A       0.141000
     29 H9         -15.2190    10.7700    38.7680 h4         1 19A       0.159000
     30 HN10       -12.7190    10.9940    38.5600 hn         1 19A       0.369000
     31 HN14       -19.0820    10.9080    41.8030 hn         1 19A       0.374000
     32 H16        -18.8800    13.1900    42.8810 h4         1 19A       0.155000
     33 H19        -15.3520    14.7690    40.4320 ha         1 19A       0.116500
     34 H20        -14.3490    16.9310    41.0400 ha         1 19A       0.111000
     35 H21        -14.6310    17.8380    43.3330 ha         1 19A       0.111000
     36 H22        -15.9350    16.5510    45.0050 ha         1 19A       0.111000
     37 H23        -16.9130    14.3710    44.4000 ha         1 19A       0.116500
@<TRIPOS>BOND
     1     1     2 1   
     2     1    22 1   
     3     1    23 1   
     4     1    24 1   
     5     2     3 1   
     6     2     4 1   
     7     3    25 1   
     8     3    26 1   
     9     3    27 1   
    10     4     5 2   
    11     4     6 1   
    12     6     7 2   
    13     6    10 1   
    14     7     8 1   
    15     7    28 1   
    16     8     9 2   
    17     8    11 1   
    18     9    10 1   
    19     9    29 1   
    20    10    30 1   
    21    11    12 2   
    22    11    15 1   
    23    12    13 1   
    24    13    14 1   
    25    13    31 1   
    26    14    15 2   
    27    14    32 1   
    28    15    16 1   
    29    16    17 ar  
    30    16    21 ar  
    31    17    18 ar  
    32    17    33 1   
    33    18    19 ar  
    34    18    34 1   
    35    19    20 ar  
    36    19    35 1   
    37    20    21 ar  
    38    20    36 1   
    39    21    37 1   
@<TRIPOS>SUBSTRUCTURE
     1 19A         1 TEMP              0 ****  ****    0 ROOT
