@<TRIPOS>MOLECULE
19B
   69    74     1     0     0
SMALL
bcc


@<TRIPOS>ATOM
      1 O25          2.4490     0.0410    -0.5930 o          1 19B      -0.580100
      2 C22          2.4800     1.1890    -0.1800 c          1 19B       0.689700
      3 N24          3.5710     1.7670     0.3810 ns         1 19B      -0.467100
      4 C26          4.8550     1.2490     0.5840 ca         1 19B       0.101600
      5 C27          5.2550    -0.0170     0.1750 ca         1 19B      -0.200000
      6 C29          6.5610    -0.4720     0.4180 ca         1 19B       0.188600
      7 C32          7.4530     0.3750     1.0850 ca         1 19B      -0.219000
      8 C30          7.0360     1.6330     1.4980 ca         1 19B      -0.069000
      9 C28          5.7550     2.0850     1.2540 ca         1 19B      -0.223000
     10 N31          6.9190    -1.7600     0.0250 nh         1 19B      -0.650000
     11 C33          8.2430    -2.2370     0.3750 c6         1 19B       0.160800
     12 C35          8.3200    -3.7420     0.1940 c6         1 19B       0.124400
     13 O37          7.9660    -4.1380    -1.1100 os         1 19B      -0.399600
     14 C36          6.6580    -3.7130    -1.4140 c6         1 19B       0.124400
     15 C34          6.5150    -2.2090    -1.3010 c6         1 19B       0.160800
     16 C19          1.2720     2.0650    -0.2420 ca         1 19B      -0.161600
     17 C23          1.3360     3.4520    -0.3470 ca         1 19B      -0.096000
     18 C20          0.1700     4.1950    -0.4040 ca         1 19B      -0.142000
     19 C18         -1.0880     3.5970    -0.3620 ca         1 19B      -0.030300
     20 C21         -2.3120     4.4630    -0.3910 c3         1 19B      -0.055800
     21 C15         -1.1520     2.1980    -0.2760 cp         1 19B      -0.058000
     22 C17          0.0230     1.4550    -0.2210 ca         1 19B      -0.059000
     23 C12         -2.4450     1.4740    -0.2190 cp         1 19B       0.007000
     24 C9          -2.7000     0.6180     0.8730 ca         1 19B      -0.152000
     25 C4          -3.8750    -0.0970     0.9780 ca         1 19B      -0.050000
     26 C1          -4.8140     0.0500    -0.0420 ca         1 19B      -0.246900
     27 C3          -4.5490     0.8910    -1.1110 ca         1 19B       0.077100
     28 O8          -5.5830     0.8630    -1.9630 os         1 19B      -0.015600
     29 C7          -3.3760     1.6190    -1.2380 ca         1 19B      -0.124000
     30 C2          -6.1110    -0.4770    -0.3440 cc         1 19B       0.388900
     31 N6          -6.5400     0.0080    -1.4650 nd         1 19B      -0.388200
     32 C5          -6.9200    -1.4460     0.4570 c6         1 19B      -0.079000
     33 C10         -7.2070    -2.7340    -0.3240 c6         1 19B      -0.110400
     34 C13         -8.0550    -3.6830     0.5200 c6         1 19B       0.150300
     35 N16         -9.2880    -3.0950     1.0160 n7         1 19B      -0.792200
     36 C14         -9.0450    -1.8540     1.7330 c6         1 19B       0.150300
     37 C11         -8.2360    -0.8270     0.9440 c6         1 19B      -0.110400
     38 HN24         3.4340     2.6850     0.7750 hn         1 19B       0.318500
     39 H27          4.5440    -0.6630    -0.3090 ha         1 19B       0.168000
     40 H32          8.4730     0.0790     1.2800 ha         1 19B       0.133000
     41 H30          7.7370     2.2780     2.0120 ha         1 19B       0.128000
     42 H28          5.4510     3.0720     1.5790 ha         1 19B       0.127000
     43 H33          9.0270    -1.7470    -0.2220 h1         1 19B       0.049450
     44 H33A         8.4490    -2.0240     1.4250 h1         1 19B       0.049450
     45 H35          9.3410    -4.0790     0.3760 h1         1 19B       0.053200
     46 H35A         7.6670    -4.2270     0.9330 h1         1 19B       0.053200
     47 H36          6.4380    -4.0250    -2.4360 h1         1 19B       0.053200
     48 H36A         5.9300    -4.1980    -0.7480 h1         1 19B       0.053200
     49 H34          5.4740    -1.9600    -1.4940 h1         1 19B       0.049450
     50 H34A         7.1170    -1.7160    -2.0790 h1         1 19B       0.049450
     51 H23          2.2840     3.9720    -0.4050 ha         1 19B       0.133000
     52 H20          0.2380     5.2730    -0.4760 ha         1 19B       0.136000
     53 H21         -2.7270     4.5390    -1.3970 hc         1 19B       0.050367
     54 H21A        -3.1020     4.0770     0.2530 hc         1 19B       0.050367
     55 H21B        -2.0740     5.4750    -0.0650 hc         1 19B       0.050367
     56 H17         -0.0400     0.3760    -0.1600 ha         1 19B       0.158000
     57 H9          -1.9560     0.5350     1.6550 ha         1 19B       0.142000
     58 H4          -4.0570    -0.7450     1.8250 ha         1 19B       0.144000
     59 H7          -3.1920     2.2560    -2.0940 ha         1 19B       0.159000
     60 H5          -6.3270    -1.7140     1.3390 hc         1 19B       0.058700
     61 H10         -7.7390    -2.4870    -1.2480 hc         1 19B       0.054950
     62 H10A        -6.2720    -3.2200    -0.6130 hc         1 19B       0.054950
     63 H13         -8.2980    -4.5790    -0.0540 h1         1 19B       0.053450
     64 H13A        -7.4680    -4.0160     1.3830 h1         1 19B       0.053450
     65 HN16        -9.9040    -2.9090     0.2330 hn         1 19B       0.351800
     66 H14        -10.0040    -1.4250     2.0290 h1         1 19B       0.053450
     67 H14A        -8.5120    -2.0960     2.6590 h1         1 19B       0.053450
     68 H11         -8.0380     0.0510     1.5640 hc         1 19B       0.054950
     69 H11A        -8.8160    -0.4850     0.0810 hc         1 19B       0.054950
@<TRIPOS>BOND
     1     1     2 2   
     2     2     3 1   
     3     2    16 1   
     4     3     4 1   
     5     3    38 1   
     6     4     5 ar  
     7     4     9 ar  
     8     5     6 ar  
     9     5    39 1   
    10     6     7 ar  
    11     6    10 1   
    12     7     8 ar  
    13     7    40 1   
    14     8     9 ar  
    15     8    41 1   
    16     9    42 1   
    17    10    11 1   
    18    10    15 1   
    19    11    12 1   
    20    11    43 1   
    21    11    44 1   
    22    12    13 1   
    23    12    45 1   
    24    12    46 1   
    25    13    14 1   
    26    14    15 1   
    27    14    47 1   
    28    14    48 1   
    29    15    49 1   
    30    15    50 1   
    31    16    17 ar  
    32    16    22 ar  
    33    17    18 ar  
    34    17    51 1   
    35    18    19 ar  
    36    18    52 1   
    37    19    20 1   
    38    19    21 ar  
    39    20    53 1   
    40    20    54 1   
    41    20    55 1   
    42    21    22 ar  
    43    21    23 1   
    44    22    56 1   
    45    23    24 ar  
    46    23    29 ar  
    47    24    25 ar  
    48    24    57 1   
    49    25    26 ar  
    50    25    58 1   
    51    26    27 ar  
    52    26    30 1   
    53    27    28 1   
    54    27    29 ar  
    55    28    31 1   
    56    29    59 1   
    57    30    31 2   
    58    30    32 1   
    59    32    33 1   
    60    32    37 1   
    61    32    60 1   
    62    33    34 1   
    63    33    61 1   
    64    33    62 1   
    65    34    35 1   
    66    34    63 1   
    67    34    64 1   
    68    35    36 1   
    69    35    65 1   
    70    36    37 1   
    71    36    66 1   
    72    36    67 1   
    73    37    68 1   
    74    37    69 1   
@<TRIPOS>SUBSTRUCTURE
     1 19B         1 TEMP              0 ****  ****    0 ROOT
