@<TRIPOS>MOLECULE
19B
   69    74     1     0     0
SMALL
No Charge or Current Charge


@<TRIPOS>ATOM
      1 O25          2.4150    -0.0490    -0.2760 o          1 19B      -0.580100
      2 C22          2.4770     1.1640    -0.1010 c          1 19B       0.622700
      3 N24          3.6770     1.8590     0.0010 ns         1 19B      -0.141000
      4 C26          5.0340     1.4380    -0.0210 ca         1 19B       0.009000
      5 C27          5.4360     0.0850     0.0330 ca         1 19B      -0.182000
      6 C29          6.7980    -0.2680     0.0140 ca         1 19B       0.327000
      7 C32          7.7680     0.7490    -0.0490 ca         1 19B      -0.201000
      8 C30          7.3830     2.0970    -0.0950 ca         1 19B      -0.051000
      9 C28          6.0210     2.4360    -0.0790 ca         1 19B      -0.205000
     10 N31          7.1700    -1.6330     0.0680 nh         1 19B      -0.788400
     11 C33          8.4840    -2.0570     0.6560 c6         1 19B       0.160800
     12 C35          8.4810    -3.5550     1.0890 c6         1 19B       0.147600
     13 O37          8.0350    -4.4030     0.0040 os         1 19B      -0.446000
     14 C36          6.6950    -4.0780    -0.4360 c6         1 19B       0.147600
     15 C34          6.6180    -2.6030    -0.9350 c6         1 19B       0.160800
     16 C19          1.2160     2.0040     0.0060 ca         1 19B      -0.161600
     17 C23          1.2540     3.4040     0.2050 ca         1 19B      -0.078000
     18 C20          0.0640     4.1420     0.3030 ca         1 19B      -0.124000
     19 C18         -1.1910     3.5140     0.2030 ca         1 19B      -0.030300
     20 C21         -2.4410     4.3740     0.3600 c3         1 19B      -0.055800
     21 C15         -1.2560     2.1090    -0.0110 cp         1 19B      -0.058000
     22 C17         -0.0460     1.3790    -0.0970 ca         1 19B      -0.041000
     23 C12         -2.5530     1.3790    -0.1400 cp         1 19B       0.007000
     24 C9          -2.8400     0.2640     0.7020 ca         1 19B      -0.134000
     25 C4          -4.0530    -0.4480     0.5920 ca         1 19B      -0.032000
     26 C1          -4.9670    -0.0210    -0.3800 ca         1 19B      -0.246900
     27 C3          -4.7070     1.0290    -1.1990 ca         1 19B       0.077100
     28 O8          -5.7370     1.2400    -2.0710 os         1 19B      -0.114100
     29 C7          -3.5150     1.7550    -1.1180 ca         1 19B      -0.106000
     30 C2          -6.2600    -0.5120    -0.7570 cc         1 19B       0.388900
     31 N6          -6.7420     0.2280    -1.7650 nd         1 19B      -0.289700
     32 C5          -7.0020    -1.6620    -0.0950 c6         1 19B      -0.079000
     33 C10         -8.1880    -2.1970    -0.9530 c6         1 19B      -0.110400
     34 C13         -8.9430    -3.3270    -0.2130 c6         1 19B       0.150300
     35 N16         -9.4160    -2.8650     1.1150 n7         1 19B      -0.847400
     36 C14         -8.3110    -2.3890     1.9830 c6         1 19B       0.150300
     37 C11         -7.5280    -1.2380     1.3050 c6         1 19B      -0.110400
     38 HN24         3.5670     2.8570     0.1140 hn         1 19B       0.152000
     39 H27          4.7050    -0.7090     0.1130 ha         1 19B       0.150000
     40 H32          8.8250     0.5020    -0.0730 ha         1 19B       0.115000
     41 H30          8.1390     2.8790    -0.1450 ha         1 19B       0.110000
     42 H28          5.7340     3.4850    -0.1150 ha         1 19B       0.109000
     43 H33          9.2900    -1.9040    -0.0770 h1         1 19B       0.049450
     44 H33A         8.7220    -1.4440     1.5380 h1         1 19B       0.049450
     45 H35          9.4940    -3.8570     1.3900 h1         1 19B       0.053200
     46 H35A         7.8150    -3.6920     1.9520 h1         1 19B       0.053200
     47 H36          6.4060    -4.7610    -1.2470 h1         1 19B       0.053200
     48 H36A         5.9950    -4.2250     0.3990 h1         1 19B       0.053200
     49 H34          5.5680    -2.3740    -1.1670 h1         1 19B       0.049450
     50 H34A         7.1800    -2.5210    -1.8770 h1         1 19B       0.049450
     51 H23          2.1960     3.9400     0.2910 ha         1 19B       0.115000
     52 H20          0.1220     5.2160     0.4640 ha         1 19B       0.118000
     53 H21         -2.8370     4.6750    -0.6170 hc         1 19B       0.050367
     54 H21A        -3.2330     3.8400     0.8980 hc         1 19B       0.050367
     55 H21B        -2.2320     5.2890     0.9270 hc         1 19B       0.050367
     56 H17         -0.1030     0.3040    -0.2580 ha         1 19B       0.140000
     57 H9          -2.1120    -0.0420     1.4500 ha         1 19B       0.124000
     58 H4          -4.2640    -1.2980     1.2390 ha         1 19B       0.126000
     59 H7          -3.3280     2.5810    -1.7980 ha         1 19B       0.141000
     60 H5          -6.2920    -2.4890     0.0450 hc         1 19B       0.058700
     61 H10         -8.8920    -1.3860    -1.1830 hc         1 19B       0.054950
     62 H10A        -7.8180    -2.5740    -1.9160 hc         1 19B       0.054950
     63 H13         -9.8020    -3.6560    -0.8180 h1         1 19B       0.053450
     64 H13A        -8.2770    -4.1950    -0.0870 h1         1 19B       0.053450
     65 HN16       -10.0680    -2.0840     0.9690 hn         1 19B       0.407000
     66 H14         -8.7170    -2.0430     2.9450 h1         1 19B       0.053450
     67 H14A        -7.6240    -3.2230     2.1960 h1         1 19B       0.053450
     68 H11         -6.6930    -0.9370     1.9510 hc         1 19B       0.054950
     69 H11A        -8.1790    -0.3570     1.2100 hc         1 19B       0.054950
@<TRIPOS>BOND
     1     1     2 2   
     2     2     3 1   
     3     2    16 1   
     4     3     4 1   
     5     3    38 1   
     6     4     5 ar  
     7     4     9 ar  
     8     5     6 ar  
     9     5    39 1   
    10     6     7 ar  
    11     6    10 1   
    12     7     8 ar  
    13     7    40 1   
    14     8     9 ar  
    15     8    41 1   
    16     9    42 1   
    17    10    11 1   
    18    10    15 1   
    19    11    12 1   
    20    11    43 1   
    21    11    44 1   
    22    12    13 1   
    23    12    45 1   
    24    12    46 1   
    25    13    14 1   
    26    14    15 1   
    27    14    47 1   
    28    14    48 1   
    29    15    49 1   
    30    15    50 1   
    31    16    17 ar  
    32    16    22 ar  
    33    17    18 ar  
    34    17    51 1   
    35    18    19 ar  
    36    18    52 1   
    37    19    20 1   
    38    19    21 ar  
    39    20    53 1   
    40    20    54 1   
    41    20    55 1   
    42    21    22 ar  
    43    21    23 1   
    44    22    56 1   
    45    23    24 ar  
    46    23    29 ar  
    47    24    25 ar  
    48    24    57 1   
    49    25    26 ar  
    50    25    58 1   
    51    26    27 ar  
    52    26    30 1   
    53    27    28 1   
    54    27    29 ar  
    55    28    31 1   
    56    29    59 1   
    57    30    31 2   
    58    30    32 1   
    59    32    33 1   
    60    32    37 1   
    61    32    60 1   
    62    33    34 1   
    63    33    61 1   
    64    33    62 1   
    65    34    35 1   
    66    34    63 1   
    67    34    64 1   
    68    35    36 1   
    69    35    65 1   
    70    36    37 1   
    71    36    66 1   
    72    36    67 1   
    73    37    68 1   
    74    37    69 1   
@<TRIPOS>SUBSTRUCTURE
     1 19B         1 TEMP              0 ****  ****    0 ROOT
