@<TRIPOS>MOLECULE
19C
   32    34     1     0     0
SMALL
No Charge or Current Charge


@<TRIPOS>ATOM
      1 OAA          1.4970    -2.2460     0.8160 o          1 19C      -0.578000
      2 OAB          5.8860     0.1200    -1.3440 oh         1 19C      -0.510100
      3 OAC          4.0570    -1.9080    -0.4950 oh         1 19C      -0.507100
      4 CAF          4.3940     1.7960    -0.4770 ca         1 19C      -0.151000
      5 CAG         -3.0720    -1.8010    -0.7450 ca         1 19C      -0.146000
      6 CAH         -2.0160    -1.7930     0.1840 ca         1 19C      -0.062000
      7 CAI          3.1900     2.1540     0.1690 ca         1 19C      -0.097000
      8 CAJ         -2.6550     0.4500     0.8900 ca         1 19C      -0.071000
      9 CAK         -0.6550    -0.6560     2.0030 c3         1 19C       0.158300
     10 CAL          0.9680     1.2860     1.2820 c5         1 19C       0.146300
     11 CAM          1.5450    -1.0250     0.8620 c          1 19C       0.589600
     12 CAN          4.7100     0.4360    -0.7130 ca         1 19C       0.095100
     13 CAO         -3.9170    -0.6850    -0.8550 ca         1 19C       0.186000
     14 CAP          3.8070    -0.5790    -0.2950 ca         1 19C       0.198100
     15 CAQ         -3.7100     0.4440    -0.0390 ca         1 19C       0.063000
     16 CAR         -1.8050    -0.6680     1.0070 ca         1 19C      -0.126300
     17 CAS          2.3110     1.1390     0.5750 ca         1 19C      -0.075300
     18 CAT          2.6270    -0.1870     0.3420 ca         1 19C      -0.252600
     19 NAU          0.5940    -0.1570     1.4100 n          1 19C      -0.406800
     20 HOAB         6.3660     0.9510    -1.5510 ho         1 19C       0.462000
     21 HOAC         3.2900    -2.4020    -0.1230 ho         1 19C       0.498000
     22 HAF          5.0780     2.5800    -0.7940 ha         1 19C       0.117000
     23 HAG         -3.2360    -2.6680    -1.3790 ha         1 19C       0.139000
     24 HAH         -1.3610    -2.6590     0.2630 ha         1 19C       0.136000
     25 HAI          2.9480     3.2000     0.3490 ha         1 19C       0.124000
     26 HAJ         -2.4970     1.3260     1.5150 ha         1 19C       0.129000
     27 HAK         -0.9180    -0.0180     2.8580 h1         1 19C       0.070200
     28 HAKA        -0.4970    -1.6690     2.3970 h1         1 19C       0.070200
     29 HAL1         1.0740     1.7720     2.2620 h1         1 19C       0.065200
     30 HAL2         0.2460     1.8440     0.6720 h1         1 19C       0.065200
     31 FAD         -4.9290    -0.7040    -1.7540 f          1 19C      -0.159000
     32 ClA         -4.7590     1.8560    -0.1680 cl         1 19C      -0.169000
@<TRIPOS>BOND
     1     1    11 2   
     2     2    12 1   
     3     2    20 1   
     4     3    14 1   
     5     3    21 1   
     6     4     7 ar  
     7     4    12 ar  
     8     4    22 1   
     9     5     6 ar  
    10     5    13 ar  
    11     5    23 1   
    12     6    16 ar  
    13     6    24 1   
    14     7    17 ar  
    15     7    25 1   
    16     8    15 ar  
    17     8    16 ar  
    18     8    26 1   
    19     9    16 1   
    20     9    19 1   
    21     9    27 1   
    22     9    28 1   
    23    10    17 1   
    24    10    19 1   
    25    10    29 1   
    26    10    30 1   
    27    11    18 1   
    28    11    19 1   
    29    12    14 ar  
    30    13    15 ar  
    31    13    31 1   
    32    14    18 ar  
    33    15    32 1   
    34    17    18 ar  
@<TRIPOS>SUBSTRUCTURE
     1 19C         1 TEMP              0 ****  ****    0 ROOT
