@<TRIPOS>MOLECULE
19C
   32    34     1     0     0
SMALL
abcg2


@<TRIPOS>ATOM
      1 OAA          1.6430    -2.2720     1.2060 o          1 19C      -0.578000
      2 OAB          5.8580    -0.0440    -1.1560 oh         1 19C      -0.510100
      3 OAC          4.2720    -1.9030    -0.1020 oh         1 19C      -0.507100
      4 CAF          4.2490     1.6870    -0.6590 ca         1 19C      -0.151000
      5 CAG         -2.8080    -1.3950    -1.0040 ca         1 19C      -0.146000
      6 CAH         -1.7810    -1.4420    -0.0770 ca         1 19C      -0.062000
      7 CAI          3.0180     2.0770    -0.1280 ca         1 19C      -0.097000
      8 CAJ         -2.8110     0.3200     1.1830 ca         1 19C      -0.071000
      9 CAK         -0.6320    -0.6340     2.0100 c3         1 19C       0.158300
     10 CAL          0.8590     1.1660     1.0520 c5         1 19C       0.146300
     11 CAM          1.6070    -1.0550     1.0500 c          1 19C       0.589600
     12 CAN          4.6750     0.3630    -0.6520 ca         1 19C       0.095100
     13 CAO         -3.8330    -0.4860    -0.8270 ca         1 19C       0.186000
     14 CAP          3.8520    -0.6300    -0.0980 ca         1 19C       0.198100
     15 CAQ         -3.8450     0.3690     0.2600 ca         1 19C       0.063000
     16 CAR         -1.7720    -0.5870     1.0220 ca         1 19C      -0.126300
     17 CAS          2.2150     1.1010     0.4160 ca         1 19C      -0.075300
     18 CAT          2.6390    -0.2210     0.4270 ca         1 19C      -0.252600
     19 NAU          0.6130    -0.2170     1.4170 n          1 19C      -0.406800
     20 HOAB         6.3450     0.7080    -1.5120 ho         1 19C       0.462000
     21 HOAC         3.5910    -2.4640     0.3000 ho         1 19C       0.498000
     22 HAF          4.8990     2.4390    -1.0920 ha         1 19C       0.117000
     23 HAG         -2.8200    -2.0590    -1.8580 ha         1 19C       0.139000
     24 HAH         -0.9830    -2.1610    -0.2120 ha         1 19C       0.136000
     25 HAI          2.7220     3.1180    -0.1540 ha         1 19C       0.124000
     26 HAJ         -2.8200     0.9970     2.0280 ha         1 19C       0.129000
     27 HAK         -0.8530     0.0030     2.8690 h1         1 19C       0.070200
     28 HAKA        -0.5020    -1.6480     2.3900 h1         1 19C       0.070200
     29 HAL1         0.8390     1.8100     1.9350 h1         1 19C       0.065200
     30 HAL2         0.0950     1.5310     0.3590 h1         1 19C       0.065200
     31 FAD         -4.8280    -0.4290    -1.7140 f          1 19C      -0.159000
     32 CLA         -5.1420     1.4880     0.4460 cl         1 19C      -0.169000
@<TRIPOS>BOND
     1     1    11 2   
     2     2    12 1   
     3     2    20 1   
     4     3    14 1   
     5     3    21 1   
     6     4     7 ar  
     7     4    12 ar  
     8     4    22 1   
     9     5     6 ar  
    10     5    13 ar  
    11     5    23 1   
    12     6    16 ar  
    13     6    24 1   
    14     7    17 ar  
    15     7    25 1   
    16     8    15 ar  
    17     8    16 ar  
    18     8    26 1   
    19     9    16 1   
    20     9    19 1   
    21     9    27 1   
    22     9    28 1   
    23    10    17 1   
    24    10    19 1   
    25    10    29 1   
    26    10    30 1   
    27    11    18 1   
    28    11    19 1   
    29    12    14 ar  
    30    13    15 ar  
    31    13    31 1   
    32    14    18 ar  
    33    15    32 1   
    34    17    18 ar  
@<TRIPOS>SUBSTRUCTURE
     1 19C         1 TEMP              0 ****  ****    0 ROOT
