@<TRIPOS>MOLECULE
19D
   36    37     1     0     0
SMALL
No Charge or Current Charge


@<TRIPOS>ATOM
      1 C1          -0.8360     2.7300     0.6060 c          1 19D       0.754000
      2 O1A         -0.2010     3.2750     1.5060 o          1 19D      -0.686000
      3 O1B         -1.8800     3.2240     0.1880 o          1 19D      -0.686000
      4 C2          -0.3450     1.3110     0.0560 c5         1 19D       0.213000
      5 C3           0.8470     1.5040    -0.9470 c6         1 19D       0.122300
      6 C4           1.4580     0.1660    -1.4760 c6         1 19D       0.130300
      7 O4           0.7680    -0.2990    -2.6530 oh         1 19D      -0.665000
      8 C5           1.4720    -0.9220    -0.3560 c6         1 19D       0.091700
      9 N5           2.6530    -0.7640     0.5180 ns         1 19D      -0.495900
     10 C6           0.1770    -0.8620     0.5140 c5         1 19D       0.105300
     11 O6           0.1010     0.4420     1.1280 os         1 19D      -0.437000
     12 C7          -1.1600    -0.8800    -0.2990 c5         1 19D       0.120300
     13 O7          -1.4310     0.5340    -0.5430 os         1 19D      -0.429000
     14 C8          -2.3560    -1.4920     0.4840 c3         1 19D       0.150300
     15 O8          -2.1140    -2.8840     0.7690 oh         1 19D      -0.719000
     16 C9          -3.7060    -1.3920    -0.2730 c3         1 19D       0.127600
     17 O9          -4.7250    -2.1160     0.4450 oh         1 19D      -0.660000
     18 C10          3.8020    -1.5150     0.4640 c          1 19D       0.597100
     19 O10          3.9740    -2.3960    -0.3650 o          1 19D      -0.623100
     20 C11          4.8460    -1.1620     1.5150 c3         1 19D      -0.178100
     21 F1           0.4330     2.2770    -2.0600 f          1 19D      -0.264000
     22 H2           1.6370     2.0740    -0.4380 h1         1 19D       0.085700
     23 H3           2.5010     0.3710    -1.7580 h1         1 19D       0.038700
     24 H4           0.3470     0.5010    -3.0420 ho         1 19D       0.461000
     25 H5           1.5230    -1.9120    -0.8320 h1         1 19D       0.086700
     26 H6           2.6030    -0.0730     1.2580 hn         1 19D       0.333500
     27 H7           0.2170    -1.6420     1.2860 h1         1 19D       0.092700
     28 H8          -1.0590    -1.4110    -1.2540 h1         1 19D       0.062700
     29 H9          -2.4600    -0.9250     1.4220 h1         1 19D       0.109700
     30 H10         -3.0200    -3.2580     0.8920 ho         1 19D       0.487000
     31 H11         -3.9850    -0.3340    -0.3720 h1         1 19D       0.040200
     32 H12         -3.5870    -1.8010    -1.2860 h1         1 19D       0.040200
     33 H13         -5.5750    -1.9650    -0.0270 ho         1 19D       0.431000
     34 H14          4.3900    -1.2320     2.5090 hc         1 19D       0.055033
     35 H15          5.7490    -1.7780     1.4400 hc         1 19D       0.055033
     36 H16          5.0790    -0.0930     1.4420 hc         1 19D       0.055033
@<TRIPOS>BOND
     1     1     2 1   
     2     1     3 1   
     3     1     4 1   
     4     4     5 1   
     5     4    11 1   
     6     4    13 1   
     7     5     6 1   
     8     5    21 1   
     9     5    22 1   
    10     6     7 1   
    11     6     8 1   
    12     6    23 1   
    13     7    24 1   
    14     8     9 1   
    15     8    10 1   
    16     8    25 1   
    17     9    18 1   
    18     9    26 1   
    19    10    11 1   
    20    10    12 1   
    21    10    27 1   
    22    12    13 1   
    23    12    14 1   
    24    12    28 1   
    25    14    15 1   
    26    14    16 1   
    27    14    29 1   
    28    15    30 1   
    29    16    17 1   
    30    16    31 1   
    31    16    32 1   
    32    17    33 1   
    33    18    19 2   
    34    18    20 1   
    35    20    34 1   
    36    20    35 1   
    37    20    36 1   
@<TRIPOS>SUBSTRUCTURE
     1 19D         1 TEMP              0 ****  ****    0 ROOT
