@<TRIPOS>MOLECULE
19D
   36    37     1     0     0
SMALL
bcc


@<TRIPOS>ATOM
      1 C1          -1.0330     2.5110     0.5470 c          1 19D       0.964600
      2 O1A         -0.2170     3.2480     1.1270 o          1 19D      -0.791300
      3 O1B         -2.2430     2.6880     0.3620 o          1 19D      -0.791300
      4 C2          -0.4160     1.1900     0.0150 c5         1 19D       0.166600
      5 C3           0.8310     1.4270    -0.8350 c6         1 19D       0.103600
      6 C4           1.4350     0.1330    -1.3850 c6         1 19D       0.107100
      7 O4           0.7420    -0.3730    -2.4970 oh         1 19D      -0.602800
      8 C5           1.4100    -0.9520    -0.2860 c6         1 19D       0.091700
      9 N5           2.5310    -0.8100     0.6150 ns         1 19D      -0.562900
     10 C6           0.1220    -0.8890     0.5340 c5         1 19D       0.082100
     11 O6           0.0110     0.4070     1.1070 os         1 19D      -0.390600
     12 C7          -1.1610    -0.9500    -0.2950 c5         1 19D       0.097100
     13 O7          -1.3500     0.4030    -0.6700 os         1 19D      -0.382600
     14 C8          -2.3460    -1.4560     0.5330 c3         1 19D       0.127100
     15 O8          -2.1450    -2.8120     0.8640 oh         1 19D      -0.596800
     16 C9          -3.6630    -1.2240    -0.1880 c3         1 19D       0.104400
     17 O9          -4.7130    -1.6850     0.6320 oh         1 19D      -0.597800
     18 C10          3.7420    -1.3440     0.3690 c          1 19D       0.664100
     19 O10          3.9780    -2.0100    -0.6300 o          1 19D      -0.623100
     20 C11          4.7950    -1.0720     1.4130 c3         1 19D      -0.178100
     21 F1           0.5120     2.2660    -1.9030 f          1 19D      -0.245300
     22 H2           1.5720     1.9400    -0.2200 h1         1 19D       0.085700
     23 H3           2.4820     0.3300    -1.6510 h1         1 19D       0.038700
     24 H4           0.5250     0.3550    -3.0880 ho         1 19D       0.422000
     25 H5           1.4790    -1.9280    -0.7720 h1         1 19D       0.086700
     26 H6           2.4140    -0.2290     1.4310 hn         1 19D       0.333500
     27 H7           0.1520    -1.6300     1.3350 h1         1 19D       0.092700
     28 H8          -1.0540    -1.5740    -1.1890 h1         1 19D       0.062700
     29 H9          -2.3710    -0.9160     1.4860 h1         1 19D       0.109700
     30 H10         -2.1830    -3.3360     0.0550 ho         1 19D       0.388000
     31 H11         -3.7600    -0.1550    -0.4040 h1         1 19D       0.040200
     32 H12         -3.6420    -1.7530    -1.1540 h1         1 19D       0.040200
     33 H13         -5.5420    -1.4560     0.2050 ho         1 19D       0.392000
     34 H14          4.4340    -0.4910     2.2590 hc         1 19D       0.055033
     35 H15          5.1860    -2.0190     1.7840 hc         1 19D       0.055033
     36 H16          5.6250    -0.5340     0.9550 hc         1 19D       0.055033
@<TRIPOS>BOND
     1     1     2 1   
     2     1     3 1   
     3     1     4 1   
     4     4     5 1   
     5     4    11 1   
     6     4    13 1   
     7     5     6 1   
     8     5    21 1   
     9     5    22 1   
    10     6     7 1   
    11     6     8 1   
    12     6    23 1   
    13     7    24 1   
    14     8     9 1   
    15     8    10 1   
    16     8    25 1   
    17     9    18 1   
    18     9    26 1   
    19    10    11 1   
    20    10    12 1   
    21    10    27 1   
    22    12    13 1   
    23    12    14 1   
    24    12    28 1   
    25    14    15 1   
    26    14    16 1   
    27    14    29 1   
    28    15    30 1   
    29    16    17 1   
    30    16    31 1   
    31    16    32 1   
    32    17    33 1   
    33    18    19 2   
    34    18    20 1   
    35    20    34 1   
    36    20    35 1   
    37    20    36 1   
@<TRIPOS>SUBSTRUCTURE
     1 19D         1 TEMP              0 ****  ****    0 ROOT
