@<TRIPOS>MOLECULE
19E
   31    34     1     0     0
SMALL
abcg2


@<TRIPOS>ATOM
      1 C1          -4.1370    -0.2070     0.1390 ca         1 19E       0.133100
      2 O1          -5.4740    -0.3840     0.1670 oh         1 19E      -0.534100
      3 C2          -3.6380     1.0660     0.0130 ca         1 19E      -0.142000
      4 C3          -2.2490     1.3010    -0.0230 ca         1 19E      -0.025000
      5 C4          -1.3310     0.2130     0.0300 ca         1 19E      -0.007000
      6 C5          -1.8850    -1.0690     0.2120 ca         1 19E      -0.062000
      7 C6          -3.2390    -1.2810     0.2630 ca         1 19E      -0.182000
      8 C7          -1.7800     2.6450    -0.0620 ca         1 19E      -0.074000
      9 C8          -0.4530     2.9320    -0.0180 ca         1 19E      -0.118000
     10 C9           0.4520     1.8550     0.0030 ca         1 19E      -0.036200
     11 C10          0.0720     0.5100    -0.0330 cp         1 19E      -0.041000
     12 N11          1.8130     1.9570     0.0380 na         1 19E      -0.200600
     13 C12          2.3600     0.7230    -0.0060 ca         1 19E       0.002800
     14 C13          1.3170    -0.2370    -0.0910 cp         1 19E      -0.118000
     15 C14          3.7190     0.3970     0.0130 ca         1 19E      -0.156300
     16 C15          4.7830     1.4400     0.1210 c3         1 19E      -0.037800
     17 C16          3.9830    -0.9490    -0.0900 ca         1 19E       0.368900
     18 N17          3.0410    -1.8860    -0.2510 nb         1 19E      -0.691000
     19 C18          1.7830    -1.5480    -0.2690 ca         1 19E       0.503000
     20 CL18         0.7170    -2.8730    -0.6410 cl         1 19E      -0.173000
     21 HO1         -5.6860    -1.3160     0.2810 ho         1 19E       0.465000
     22 H2          -4.3160     1.9100    -0.0410 ha         1 19E       0.127000
     23 H5          -1.2370    -1.9170     0.3450 ha         1 19E       0.128000
     24 H6          -3.6130    -2.2880     0.4130 ha         1 19E       0.114000
     25 H7          -2.5070     3.4470    -0.0960 ha         1 19E       0.119000
     26 H8          -0.0940     3.9530    -0.0100 ha         1 19E       0.118000
     27 H15          4.6700     2.0360     1.0290 hc         1 19E       0.044367
     28 H15A         5.7720     0.9870     0.1420 hc         1 19E       0.044367
     29 H15B         4.7510     2.1290    -0.7260 hc         1 19E       0.044367
     30 H16          5.0070    -1.3060    -0.0710 h4         1 19E       0.024100
     31 HN11         2.3250     2.8240     0.0870 hn         1 19E       0.359000
@<TRIPOS>BOND
     1     1     2 1   
     2     1     3 ar  
     3     1     7 ar  
     4     2    21 1   
     5     3     4 ar  
     6     3    22 1   
     7     4     5 ar  
     8     4     8 ar  
     9     5     6 ar  
    10     5    11 ar  
    11     6     7 ar  
    12     6    23 1   
    13     7    24 1   
    14     8     9 ar  
    15     8    25 1   
    16     9    10 ar  
    17     9    26 1   
    18    10    11 ar  
    19    10    12 1   
    20    11    14 1   
    21    12    13 1   
    22    12    31 1   
    23    13    14 ar  
    24    13    15 ar  
    25    14    19 ar  
    26    15    16 1   
    27    15    17 ar  
    28    16    27 1   
    29    16    28 1   
    30    16    29 1   
    31    17    18 ar  
    32    17    30 1   
    33    18    19 ar  
    34    19    20 1   
@<TRIPOS>SUBSTRUCTURE
     1 19E         1 TEMP              0 ****  ****    0 ROOT
