@<TRIPOS>MOLECULE
19E
   31    34     1     0     0
SMALL
No Charge or Current Charge


@<TRIPOS>ATOM
      1 C1          -4.1100    -0.2570     0.1760 ca         1 19E       0.133100
      2 O1          -5.4470    -0.5150     0.2260 oh         1 19E      -0.534100
      3 C2          -3.6610     1.0540    -0.0260 ca         1 19E      -0.142000
      4 C3          -2.2820     1.3360    -0.0670 ca         1 19E      -0.025000
      5 C4          -1.3310     0.2800     0.0440 ca         1 19E      -0.007000
      6 C5          -1.8050    -1.0180     0.3210 ca         1 19E      -0.062000
      7 C6          -3.1830    -1.2890     0.3730 ca         1 19E      -0.182000
      8 C7          -1.8650     2.6850    -0.1760 ca         1 19E      -0.074000
      9 C8          -0.5000     3.0130    -0.1230 ca         1 19E      -0.118000
     10 C9           0.4130     1.9600    -0.0550 ca         1 19E      -0.036200
     11 C10          0.0550     0.6070    -0.0590 cp         1 19E      -0.041000
     12 N11          1.8020     2.0100     0.0780 na         1 19E      -0.200600
     13 C12          2.3710     0.7360     0.0730 ca         1 19E       0.002800
     14 C13          1.3220    -0.1720    -0.0840 cp         1 19E      -0.118000
     15 C14          3.7130     0.3500     0.0670 ca         1 19E      -0.156300
     16 C15          4.8440     1.3550     0.2400 c3         1 19E      -0.037800
     17 C16          3.9620    -1.0230    -0.1370 ca         1 19E       0.368900
     18 N17          2.9840    -1.9270    -0.4040 nb         1 19E      -0.691000
     19 C18          1.6900    -1.5120    -0.4080 ca         1 19E       0.503000
     20 Cl18         0.5950    -2.7220    -1.0670 cl         1 19E      -0.173000
     21 HO1         -5.5720    -1.4750     0.3850 ho         1 19E       0.465000
     22 H2          -4.3870     1.8560    -0.1300 ha         1 19E       0.127000
     23 H5          -1.1190    -1.8170     0.5630 ha         1 19E       0.128000
     24 H6          -3.5220    -2.3010     0.5830 ha         1 19E       0.114000
     25 H7          -2.6020     3.4810    -0.2430 ha         1 19E       0.119000
     26 H8          -0.1690     4.0500    -0.1360 ha         1 19E       0.118000
     27 H15          4.7060     1.9500     1.1510 hc         1 19E       0.044367
     28 H15A         5.8180     0.8580     0.3140 hc         1 19E       0.044367
     29 H15B         4.8880     2.0460    -0.6110 hc         1 19E       0.044367
     30 H16          4.9820    -1.4040    -0.1520 h4         1 19E       0.024100
     31 HN11         2.3360     2.8690     0.1540 hn         1 19E       0.359000
@<TRIPOS>BOND
     1     1     2 1   
     2     1     3 ar  
     3     1     7 ar  
     4     2    21 1   
     5     3     4 ar  
     6     3    22 1   
     7     4     5 ar  
     8     4     8 ar  
     9     5     6 ar  
    10     5    11 ar  
    11     6     7 ar  
    12     6    23 1   
    13     7    24 1   
    14     8     9 ar  
    15     8    25 1   
    16     9    10 ar  
    17     9    26 1   
    18    10    11 ar  
    19    10    12 1   
    20    11    14 1   
    21    12    13 1   
    22    12    31 1   
    23    13    14 ar  
    24    13    15 ar  
    25    14    19 ar  
    26    15    16 1   
    27    15    17 ar  
    28    16    27 1   
    29    16    28 1   
    30    16    29 1   
    31    17    18 ar  
    32    17    30 1   
    33    18    19 ar  
    34    19    20 1   
@<TRIPOS>SUBSTRUCTURE
     1 19E         1 TEMP              0 ****  ****    0 ROOT
