@<TRIPOS>MOLECULE
19F
   67    70     1     0     0
SMALL
No Charge or Current Charge


@<TRIPOS>ATOM
      1 CAB          5.7990    -0.8320    -0.0920 c3         1 19F       0.145900
      2 OAW          4.7690    -1.8320    -0.0080 os         1 19F      -0.321100
      3 CBC          3.5510    -1.5990     0.6120 ca         1 19F       0.109100
      4 CAN          3.2450    -0.3520     1.2070 ca         1 19F      -0.153000
      5 CBB          2.5940    -2.6410     0.6380 ca         1 19F       0.119100
      6 OAV          2.9140    -3.8520     0.0450 os         1 19F      -0.320100
      7 CAA          1.9800    -4.9420    -0.0360 c3         1 19F       0.142900
      8 CAM          1.3460    -2.4260     1.2630 ca         1 19F      -0.166000
      9 CAL          1.0540    -1.1860     1.8530 ca         1 19F      -0.086000
     10 CAY          1.9980    -0.1440     1.8260 ca         1 19F      -0.085300
     11 CAR          1.6560     1.2120     2.4460 c3         1 19F      -0.058400
     12 CBA          0.5570     1.9610     1.7280 cc         1 19F       0.453900
     13 NAU         -0.1680     2.8000     2.5580 ns         1 19F      -0.452400
     14 CBE         -1.2370     3.5350     2.1350 c          1 19F       0.626600
     15 OAE         -1.8920     4.2590     2.8650 o          1 19F      -0.517000
     16 NAT          0.3700     1.7750     0.4440 n2         1 19F      -0.545100
     17 NBI         -0.7020     2.5010    -0.0670 na         1 19F       0.109900
     18 CBF         -1.4580     3.2950     0.7220 cc         1 19F      -0.339600
     19 CAZ         -2.4420     3.7630    -0.1080 cd         1 19F       0.356300
     20 CAC         -3.5730     4.6950     0.2220 c3         1 19F      -0.124400
     21 NAS         -2.3100     3.2150    -1.3810 nd         1 19F      -0.670000
     22 CBD         -1.2340     2.4250    -1.3410 cc         1 19F       0.474800
     23 CBH         -0.7110     1.5390    -2.4580 c3         1 19F      -0.077000
     24 CBG         -0.5550     2.3170    -3.7990 c3         1 19F       0.185300
     25 CAD          0.4300     1.6520    -4.7850 c3         1 19F      -0.135100
     26 OAF         -1.8150     2.4610    -4.4620 oh         1 19F      -0.640000
     27 CAQ         -1.5140     0.2070    -2.5750 c3         1 19F      -0.061400
     28 CAO         -1.4480    -0.6810    -1.3070 c3         1 19F      -0.079400
     29 CAP         -2.2690    -1.9840    -1.4350 c3         1 19F      -0.033100
     30 CAX         -2.1300    -2.9080    -0.2270 ca         1 19F      -0.069300
     31 CAJ         -1.7050    -4.2410    -0.4010 ca         1 19F      -0.112000
     32 CAH         -1.5830    -5.1000     0.7050 ca         1 19F      -0.114500
     33 CAG         -1.8850    -4.6340     1.9950 ca         1 19F      -0.116000
     34 CAI         -2.3150    -3.3090     2.1770 ca         1 19F      -0.114500
     35 CAK         -2.4410    -2.4510     1.0710 ca         1 19F      -0.112000
     36 H1           6.6730    -1.2310    -0.6220 h1         1 19F       0.039367
     37 H2           5.4430     0.0500    -0.6400 h1         1 19F       0.039367
     38 H3           6.1220    -0.5190     0.9090 h1         1 19F       0.039367
     39 H4           3.9620     0.4630     1.1900 ha         1 19F       0.117000
     40 H5           2.4400    -5.8000    -0.5410 h1         1 19F       0.041033
     41 H6           1.6660    -5.2650     0.9650 h1         1 19F       0.041033
     42 H7           1.0910    -4.6480    -0.6080 h1         1 19F       0.041033
     43 H8           0.5910    -3.2040     1.2990 ha         1 19F       0.133000
     44 H9           0.0860    -1.0320     2.3240 ha         1 19F       0.116000
     45 H10          1.3730     1.0530     3.4940 hc         1 19F       0.068200
     46 H11          2.5460     1.8520     2.4760 hc         1 19F       0.068200
     47 H12          0.0740     2.8780     3.5350 hn         1 19F       0.333500
     48 H13         -3.1910     5.6510     0.5970 hc         1 19F       0.056367
     49 H14         -4.1910     4.9030    -0.6600 hc         1 19F       0.056367
     50 H15         -4.2210     4.2630     0.9920 hc         1 19F       0.056367
     51 H16          0.3090     1.2540    -2.1730 hc         1 19F       0.077700
     52 H17         -0.1480     3.3100    -3.5610 h1         1 19F       0.033700
     53 H18          0.5670     2.2790    -5.6740 hc         1 19F       0.042033
     54 H19          1.4130     1.5170    -4.3170 hc         1 19F       0.042033
     55 H20          0.0690     0.6710    -5.1150 hc         1 19F       0.042033
     56 H21         -1.6690     3.0530    -5.2300 ho         1 19F       0.438000
     57 H22         -2.5640     0.4370    -2.7950 hc         1 19F       0.057200
     58 H23         -1.1370    -0.3760    -3.4230 hc         1 19F       0.057200
     59 H24         -0.4020    -0.9370    -1.0990 hc         1 19F       0.045200
     60 H25         -1.8160    -0.1130    -0.4460 hc         1 19F       0.045200
     61 H26         -3.3260    -1.7260    -1.5760 hc         1 19F       0.048700
     62 H27         -1.9590    -2.5060    -2.3480 hc         1 19F       0.048700
     63 H28         -1.4690    -4.6140    -1.3950 ha         1 19F       0.112000
     64 H29         -1.2540    -6.1270     0.5610 ha         1 19F       0.111000
     65 H30         -1.7890    -5.2990     2.8510 ha         1 19F       0.113000
     66 H31         -2.5550    -2.9480     3.1750 ha         1 19F       0.111000
     67 H32         -2.7860    -1.4320     1.2260 ha         1 19F       0.112000
@<TRIPOS>BOND
     1     1     2 1   
     2     1    36 1   
     3     1    37 1   
     4     1    38 1   
     5     2     3 1   
     6     3     4 ar  
     7     3     5 ar  
     8     4    10 ar  
     9     4    39 1   
    10     5     6 1   
    11     5     8 ar  
    12     6     7 1   
    13     7    40 1   
    14     7    41 1   
    15     7    42 1   
    16     8     9 ar  
    17     8    43 1   
    18     9    10 ar  
    19     9    44 1   
    20    10    11 1   
    21    11    12 1   
    22    11    45 1   
    23    11    46 1   
    24    12    13 1   
    25    12    16 2   
    26    13    14 1   
    27    13    47 1   
    28    14    15 2   
    29    14    18 1   
    30    16    17 1   
    31    17    18 1   
    32    17    22 1   
    33    18    19 2   
    34    19    20 1   
    35    19    21 1   
    36    20    48 1   
    37    20    49 1   
    38    20    50 1   
    39    21    22 2   
    40    22    23 1   
    41    23    24 1   
    42    23    27 1   
    43    23    51 1   
    44    24    25 1   
    45    24    26 1   
    46    24    52 1   
    47    25    53 1   
    48    25    54 1   
    49    25    55 1   
    50    26    56 1   
    51    27    28 1   
    52    27    57 1   
    53    27    58 1   
    54    28    29 1   
    55    28    59 1   
    56    28    60 1   
    57    29    30 1   
    58    29    61 1   
    59    29    62 1   
    60    30    31 ar  
    61    30    35 ar  
    62    31    32 ar  
    63    31    63 1   
    64    32    33 ar  
    65    32    64 1   
    66    33    34 ar  
    67    33    65 1   
    68    34    35 ar  
    69    34    66 1   
    70    35    67 1   
@<TRIPOS>SUBSTRUCTURE
     1 19F         1 TEMP              0 ****  ****    0 ROOT
