@<TRIPOS>MOLECULE
19F
   67    70     1     0     0
SMALL
bcc


@<TRIPOS>ATOM
      1 CAB          5.5240    -0.4960    -0.1890 c3         1 19F       0.122700
      2 OAW          4.5930    -1.5580    -0.2060 os         1 19F      -0.297900
      3 CBC          3.4300    -1.3980     0.4580 ca         1 19F       0.109100
      4 CAN          3.0750    -0.2650     1.1720 ca         1 19F      -0.171000
      5 CBB          2.5380    -2.4860     0.3910 ca         1 19F       0.119100
      6 OAV          2.9610    -3.5440    -0.3300 os         1 19F      -0.296900
      7 CAA          2.0810    -4.6380    -0.4740 c3         1 19F       0.119700
      8 CAM          1.3190    -2.4040     1.0460 ca         1 19F      -0.184000
      9 CAL          0.9820    -1.2610     1.7630 ca         1 19F      -0.104000
     10 CAY          1.8480    -0.1880     1.8310 ca         1 19F      -0.085300
     11 CAR          1.4610     1.0570     2.5750 c3         1 19F      -0.058400
     12 CBA          0.4590     1.8950     1.8390 cc         1 19F       0.453900
     13 NAU         -0.1570     2.8820     2.5670 ns         1 19F      -0.519400
     14 CBE         -1.1300     3.7310     2.0720 c          1 19F       0.769100
     15 OAE         -1.6490     4.5850     2.7640 o          1 19F      -0.592500
     16 NAT          0.2180     1.6650     0.6050 n2         1 19F      -0.545100
     17 NBI         -0.7280     2.4560     0.0500 na         1 19F       0.059200
     18 CBF         -1.4300     3.4580     0.6940 cc         1 19F      -0.354200
     19 CAZ         -2.3190     3.9340    -0.2430 cd         1 19F       0.421600
     20 CAC         -3.3180     5.0280    -0.1120 c3         1 19F      -0.124400
     21 NAS         -2.1580     3.2440    -1.3970 nd         1 19F      -0.670000
     22 CBD         -1.1940     2.3590    -1.2080 cc         1 19F       0.474800
     23 CBH         -0.6690     1.3720    -2.1990 c3         1 19F      -0.077000
     24 CBG         -0.3340     2.0480    -3.5370 c3         1 19F       0.162100
     25 CAD          0.6170     1.1970    -4.3690 c3         1 19F      -0.135100
     26 OAF         -1.5340     2.3060    -4.2290 oh         1 19F      -0.577800
     27 CAQ         -1.6170     0.1710    -2.3370 c3         1 19F      -0.061400
     28 CAO         -1.5510    -0.7620    -1.1330 c3         1 19F      -0.079400
     29 CAP         -2.4720    -1.9740    -1.2770 c3         1 19F      -0.033100
     30 CAX         -2.2590    -2.9780    -0.1770 ca         1 19F      -0.069300
     31 CAJ         -1.7460    -4.2430    -0.4510 ca         1 19F      -0.130000
     32 CAH         -1.5000    -5.1560     0.5690 ca         1 19F      -0.132500
     33 CAG         -1.7630    -4.8130     1.8870 ca         1 19F      -0.134000
     34 CAI         -2.2790    -3.5540     2.1750 ca         1 19F      -0.132500
     35 CAK         -2.5270    -2.6500     1.1520 ca         1 19F      -0.130000
     36 H1           6.3780    -0.8250    -0.7750 h1         1 19F       0.039367
     37 H2           5.1180     0.4130    -0.6410 h1         1 19F       0.039367
     38 H3           5.8630    -0.2630     0.8240 h1         1 19F       0.039367
     39 H4           3.7490     0.5810     1.2260 ha         1 19F       0.135000
     40 H5           2.5900    -5.3660    -1.1010 h1         1 19F       0.041033
     41 H6           1.8430    -5.1050     0.4850 h1         1 19F       0.041033
     42 H7           1.1460    -4.3460    -0.9600 h1         1 19F       0.041033
     43 H8           0.6040    -3.2150     0.9960 ha         1 19F       0.151000
     44 H9           0.0170    -1.2170     2.2530 ha         1 19F       0.134000
     45 H10          1.0310     0.8010     3.5480 hc         1 19F       0.068200
     46 H11          2.3370     1.6770     2.7880 hc         1 19F       0.068200
     47 H12          0.1000     2.9940     3.5390 hn         1 19F       0.333500
     48 H13         -2.9410     5.9570    -0.5460 hc         1 19F       0.056367
     49 H14         -4.2350     4.7710    -0.6420 hc         1 19F       0.056367
     50 H15         -3.5630     5.2270     0.9280 hc         1 19F       0.056367
     51 H16          0.2800     0.9990    -1.8020 hc         1 19F       0.077700
     52 H17          0.1860     2.9900    -3.3040 h1         1 19F       0.033700
     53 H18          0.8680     1.7060    -5.3020 hc         1 19F       0.042033
     54 H19          1.5490     1.0180    -3.8330 hc         1 19F       0.042033
     55 H20          0.1810     0.2300    -4.6260 hc         1 19F       0.042033
     56 H21         -1.3100     2.7180    -5.0680 ho         1 19F       0.399000
     57 H22         -2.6400     0.5190    -2.4950 hc         1 19F       0.057200
     58 H23         -1.3430    -0.3990    -3.2290 hc         1 19F       0.057200
     59 H24         -0.5220    -1.1020    -0.9920 hc         1 19F       0.045200
     60 H25         -1.8140    -0.2270    -0.2160 hc         1 19F       0.045200
     61 H26         -3.5130    -1.6370    -1.2840 hc         1 19F       0.048700
     62 H27         -2.2960    -2.4540    -2.2440 hc         1 19F       0.048700
     63 H28         -1.5270    -4.5170    -1.4770 ha         1 19F       0.130000
     64 H29         -1.0990    -6.1320     0.3290 ha         1 19F       0.129000
     65 H30         -1.5690    -5.5190     2.6850 ha         1 19F       0.131000
     66 H31         -2.4900    -3.2760     3.1990 ha         1 19F       0.129000
     67 H32         -2.9250    -1.6720     1.3950 ha         1 19F       0.130000
@<TRIPOS>BOND
     1     1     2 1   
     2     1    36 1   
     3     1    37 1   
     4     1    38 1   
     5     2     3 1   
     6     3     4 ar  
     7     3     5 ar  
     8     4    10 ar  
     9     4    39 1   
    10     5     6 1   
    11     5     8 ar  
    12     6     7 1   
    13     7    40 1   
    14     7    41 1   
    15     7    42 1   
    16     8     9 ar  
    17     8    43 1   
    18     9    10 ar  
    19     9    44 1   
    20    10    11 1   
    21    11    12 1   
    22    11    45 1   
    23    11    46 1   
    24    12    13 1   
    25    12    16 2   
    26    13    14 1   
    27    13    47 1   
    28    14    15 2   
    29    14    18 1   
    30    16    17 1   
    31    17    18 1   
    32    17    22 1   
    33    18    19 2   
    34    19    20 1   
    35    19    21 1   
    36    20    48 1   
    37    20    49 1   
    38    20    50 1   
    39    21    22 2   
    40    22    23 1   
    41    23    24 1   
    42    23    27 1   
    43    23    51 1   
    44    24    25 1   
    45    24    26 1   
    46    24    52 1   
    47    25    53 1   
    48    25    54 1   
    49    25    55 1   
    50    26    56 1   
    51    27    28 1   
    52    27    57 1   
    53    27    58 1   
    54    28    29 1   
    55    28    59 1   
    56    28    60 1   
    57    29    30 1   
    58    29    61 1   
    59    29    62 1   
    60    30    31 ar  
    61    30    35 ar  
    62    31    32 ar  
    63    31    63 1   
    64    32    33 ar  
    65    32    64 1   
    66    33    34 ar  
    67    33    65 1   
    68    34    35 ar  
    69    34    66 1   
    70    35    67 1   
@<TRIPOS>SUBSTRUCTURE
     1 19F         1 TEMP              0 ****  ****    0 ROOT
