@<TRIPOS>MOLECULE
19G
   43    45     1     0     0
SMALL
No Charge or Current Charge


@<TRIPOS>ATOM
      1 OAC          2.3820    -3.0720    -0.2150 o          1 19G      -0.704000
      2 CAQ          3.5060    -2.7350     0.1280 c          1 19G       0.726200
      3 OAD          4.3080    -3.5520     0.5620 o          1 19G      -0.704000
      4 CAW          3.9360    -1.3020     0.0450 cc         1 19G      -0.052600
      5 S            5.5600    -0.8290     0.6250 ss         1 19G       0.095400
      6 CAX          5.1740     0.8700     0.2800 ca         1 19G      -0.204000
      7 CAH          6.0360     1.9520     0.5200 ca         1 19G      -0.080000
      8 CAF          5.6020     3.2510     0.1970 ca         1 19G      -0.137000
      9 CAG          4.3210     3.4510    -0.3570 ca         1 19G      -0.135000
     10 CAI          3.4710     2.3520    -0.5920 ca         1 19G      -0.089000
     11 CAY          3.9220     1.0570    -0.2680 ca         1 19G      -0.054800
     12 CAV          3.2030    -0.2010    -0.4220 cd         1 19G      -0.118400
     13 CAN          1.8100    -0.2440    -1.0260 c3         1 19G       0.008800
     14 CAL          0.7040    -0.0720     0.0370 c3         1 19G      -0.077400
     15 CAM         -0.7130    -0.1010    -0.5620 c3         1 19G       0.161600
     16 OAO         -1.6450     0.0840     0.5160 os         1 19G      -0.340100
     17 CAT         -3.0100     0.1110     0.3130 ca         1 19G       0.175100
     18 CAJ         -3.5930    -0.0410    -0.9610 ca         1 19G      -0.176500
     19 CAR         -4.9940    -0.0050    -1.1130 ca         1 19G      -0.029300
     20 CAA         -5.6030    -0.1720    -2.5010 c3         1 19G      -0.044800
     21 CAU         -5.8140     0.1850     0.0240 ca         1 19G       0.070000
     22 Cl          -7.5740     0.2310    -0.1560 cl         1 19G      -0.238000
     23 CAS         -5.2320     0.3370     1.3030 ca         1 19G      -0.029300
     24 CAB         -6.0970     0.5430     2.5420 c3         1 19G      -0.044800
     25 CAK         -3.8310     0.2990     1.4340 ca         1 19G      -0.176500
     26 H2           7.0230     1.7900     0.9500 ha         1 19G       0.104000
     27 H3           6.2550     4.1020     0.3770 ha         1 19G       0.091000
     28 H4           3.9870     4.4560    -0.6020 ha         1 19G       0.091000
     29 H5           2.4830     2.5180    -1.0120 ha         1 19G       0.103000
     30 H6           1.7030     0.5470    -1.7770 hc         1 19G       0.046700
     31 H7           1.6470    -1.1690    -1.5890 hc         1 19G       0.046700
     32 H8           0.7940    -0.8690     0.7850 hc         1 19G       0.064200
     33 H9           0.8540     0.8800     0.5600 hc         1 19G       0.064200
     34 H10         -0.8140     0.7030    -1.3030 h1         1 19G       0.032200
     35 H11         -0.8820    -1.0650    -1.0600 h1         1 19G       0.032200
     36 H12         -2.9730    -0.1870    -1.8410 ha         1 19G       0.127500
     37 H13         -6.2630    -1.0470    -2.5390 hc         1 19G       0.044533
     38 H14         -6.1920     0.7090    -2.7810 hc         1 19G       0.044533
     39 H15         -4.8350    -0.3090    -3.2710 hc         1 19G       0.044533
     40 H16         -6.7760    -0.3040     2.6940 hc         1 19G       0.044533
     41 H17         -5.4910     0.6440     3.4510 hc         1 19G       0.044533
     42 H18         -6.7050     1.4520     2.4520 hc         1 19G       0.044533
     43 H19         -3.3700     0.4150     2.4110 ha         1 19G       0.127500
@<TRIPOS>BOND
     1     1     2 1   
     2     2     3 1   
     3     2     4 1   
     4     4     5 1   
     5     4    12 2   
     6     5     6 1   
     7     6     7 ar  
     8     6    11 ar  
     9     7     8 ar  
    10     7    26 1   
    11     8     9 ar  
    12     8    27 1   
    13     9    10 ar  
    14     9    28 1   
    15    10    11 ar  
    16    10    29 1   
    17    11    12 1   
    18    12    13 1   
    19    13    14 1   
    20    13    30 1   
    21    13    31 1   
    22    14    15 1   
    23    14    32 1   
    24    14    33 1   
    25    15    16 1   
    26    15    34 1   
    27    15    35 1   
    28    16    17 1   
    29    17    18 ar  
    30    17    25 ar  
    31    18    19 ar  
    32    18    36 1   
    33    19    20 1   
    34    19    21 ar  
    35    20    37 1   
    36    20    38 1   
    37    20    39 1   
    38    21    22 1   
    39    21    23 ar  
    40    23    24 1   
    41    23    25 ar  
    42    24    40 1   
    43    24    41 1   
    44    24    42 1   
    45    25    43 1   
@<TRIPOS>SUBSTRUCTURE
     1 19G         1 TEMP              0 ****  ****    0 ROOT
