@<TRIPOS>MOLECULE
19G
   43    45     1     0     0
SMALL
abcg2


@<TRIPOS>ATOM
      1 OAC          2.3480    -3.0620    -0.2520 o          1 19G      -0.704000
      2 CAQ          3.4750    -2.6990     0.1270 c          1 19G       0.726200
      3 OAD          4.3900    -3.4080     0.5920 o          1 19G      -0.704000
      4 CAW          3.8120    -1.2330     0.0320 cc         1 19G      -0.052600
      5 S            5.3880    -0.7990     0.6310 ss         1 19G       0.095400
      6 CAX          5.1150     0.8690     0.2650 ca         1 19G      -0.204000
      7 CAH          5.9890     1.9330     0.4800 ca         1 19G      -0.080000
      8 CAF          5.5820     3.2040     0.1210 ca         1 19G      -0.137000
      9 CAG          4.3190     3.4160    -0.4470 ca         1 19G      -0.135000
     10 CAI          3.4550     2.3610    -0.6600 ca         1 19G      -0.089000
     11 CAY          3.8430     1.0630    -0.3040 ca         1 19G      -0.054800
     12 CAV          3.1050    -0.1690    -0.4360 cd         1 19G      -0.118400
     13 CAN          1.7120    -0.2130    -0.9840 c3         1 19G       0.008800
     14 CAL          0.6630    -0.0960     0.1220 c3         1 19G      -0.077400
     15 CAM         -0.7370    -0.1180    -0.4550 c3         1 19G       0.161600
     16 OAO         -1.6570     0.0070     0.6190 os         1 19G      -0.340100
     17 CAT         -2.9750     0.0570     0.3520 ca         1 19G       0.175100
     18 CAJ         -3.5220    -0.0510    -0.9210 ca         1 19G      -0.176500
     19 CAR         -4.9010     0.0170    -1.1130 ca         1 19G      -0.029300
     20 CAA         -5.4710    -0.1030    -2.4940 c3         1 19G      -0.044800
     21 CAU         -5.7120     0.1960     0.0020 ca         1 19G       0.070000
     22 CL          -7.4360     0.2970    -0.2200 cl         1 19G      -0.238000
     23 CAS         -5.1940     0.3050     1.2940 ca         1 19G      -0.029300
     24 CAB         -6.0790     0.5000     2.4870 c3         1 19G      -0.044800
     25 CAK         -3.8180     0.2310     1.4490 ca         1 19G      -0.176500
     26 H2           6.9650     1.7700     0.9200 ha         1 19G       0.104000
     27 H3           6.2450     4.0430     0.2820 ha         1 19G       0.091000
     28 H4           4.0180     4.4190    -0.7190 ha         1 19G       0.091000
     29 H5           2.4820     2.5410    -1.1020 ha         1 19G       0.103000
     30 H6           1.5780     0.6000    -1.7030 hc         1 19G       0.046700
     31 H7           1.5600    -1.1460    -1.5240 hc         1 19G       0.046700
     32 H8           0.7890    -0.9280     0.8180 hc         1 19G       0.064200
     33 H9           0.8120     0.8290     0.6840 hc         1 19G       0.064200
     34 H10         -0.8710     0.7040    -1.1680 h1         1 19G       0.032200
     35 H11         -0.9080    -1.0560    -0.9970 h1         1 19G       0.032200
     36 H12         -2.8940    -0.1850    -1.7920 ha         1 19G       0.127500
     37 H13         -6.1540    -0.9510    -2.5720 hc         1 19G       0.044533
     38 H14         -6.0350     0.7880    -2.7720 hc         1 19G       0.044533
     39 H15         -4.6800    -0.2410    -3.2280 hc         1 19G       0.044533
     40 H16         -6.7940    -0.3160     2.5940 hc         1 19G       0.044533
     41 H17         -5.4900     0.5520     3.4000 hc         1 19G       0.044533
     42 H18         -6.6570     1.4220     2.4070 hc         1 19G       0.044533
     43 H19         -3.3880     0.3140     2.4400 ha         1 19G       0.127500
@<TRIPOS>BOND
     1     1     2 1   
     2     2     3 1   
     3     2     4 1   
     4     4     5 1   
     5     4    12 2   
     6     5     6 1   
     7     6     7 ar  
     8     6    11 ar  
     9     7     8 ar  
    10     7    26 1   
    11     8     9 ar  
    12     8    27 1   
    13     9    10 ar  
    14     9    28 1   
    15    10    11 ar  
    16    10    29 1   
    17    11    12 1   
    18    12    13 1   
    19    13    14 1   
    20    13    30 1   
    21    13    31 1   
    22    14    15 1   
    23    14    32 1   
    24    14    33 1   
    25    15    16 1   
    26    15    34 1   
    27    15    35 1   
    28    16    17 1   
    29    17    18 ar  
    30    17    25 ar  
    31    18    19 ar  
    32    18    36 1   
    33    19    20 1   
    34    19    21 ar  
    35    20    37 1   
    36    20    38 1   
    37    20    39 1   
    38    21    22 1   
    39    21    23 ar  
    40    23    24 1   
    41    23    25 ar  
    42    24    40 1   
    43    24    41 1   
    44    24    42 1   
    45    25    43 1   
@<TRIPOS>SUBSTRUCTURE
     1 19G         1 TEMP              0 ****  ****    0 ROOT
