@<TRIPOS>MOLECULE
19H
   44    46     1     0     0
SMALL
No Charge or Current Charge


@<TRIPOS>ATOM
      1 OAC         -3.4490    -4.2750     0.8360 o          1 19H      -0.708000
      2 CAQ         -2.7270    -3.4350     0.3160 c          1 19H       0.724200
      3 OAD         -1.5890    -3.6950    -0.0480 o          1 19H      -0.708000
      4 CAW         -3.2900    -2.0540     0.1500 cc         1 19H      -0.073300
      5 NAO         -4.5710    -1.6030     0.5450 na         1 19H      -0.192700
      6 CAY         -4.7290    -0.2640     0.2480 ca         1 19H      -0.062200
      7 CAK         -5.8330     0.5660     0.4800 ca         1 19H      -0.119000
      8 CAT         -5.7330     1.9160     0.0810 ca         1 19H       0.117000
      9 Cl2         -7.0870     3.0060     0.3470 cl         1 19H      -0.259000
     10 CAG         -4.5520     2.4010    -0.5280 ca         1 19H      -0.157000
     11 CAH         -3.4570     1.5370    -0.7470 ca         1 19H      -0.064000
     12 CAZ         -3.5900     0.2000    -0.3410 ca         1 19H      -0.093800
     13 CAX         -2.6760    -0.9220    -0.4150 cd         1 19H      -0.167400
     14 CAN         -1.2920    -0.8200    -1.0190 c3         1 19H       0.025800
     15 CAL         -0.2210    -0.4710     0.0350 c3         1 19H      -0.081400
     16 CAM          1.1920    -0.3470    -0.5640 c3         1 19H       0.161600
     17 OAP          2.0900    -0.0080     0.5050 os         1 19H      -0.338100
     18 CAU          3.4410     0.1800     0.2990 ca         1 19H       0.175100
     19 CAI          4.2290     0.5110     1.4110 ca         1 19H      -0.177000
     20 CAR          5.6160     0.7180     1.2770 ca         1 19H      -0.028800
     21 CAA          6.4440     1.0760     2.5060 c3         1 19H      -0.044800
     22 CAV          6.2150     0.5900     0.0030 ca         1 19H       0.070000
     23 Cl1          7.9580     0.8470    -0.1810 cl         1 19H      -0.238000
     24 CAS          5.4290     0.2570    -1.1240 ca         1 19H      -0.028800
     25 CAB          6.0590     0.1140    -2.5060 c3         1 19H      -0.044800
     26 CAJ          4.0430     0.0540    -0.9700 ca         1 19H      -0.177000
     27 H2          -5.2700    -2.1890     0.9910 hn         1 19H       0.368000
     28 H3          -6.7370     0.1880     0.9500 ha         1 19H       0.118000
     29 H4          -4.4870     3.4430    -0.8290 ha         1 19H       0.107000
     30 H5          -2.5440     1.9010    -1.2110 ha         1 19H       0.105000
     31 H6          -1.0180    -1.7450    -1.5380 hc         1 19H       0.040200
     32 H7          -1.2840    -0.0450    -1.7950 hc         1 19H       0.040200
     33 H8          -0.4900     0.4740     0.5210 hc         1 19H       0.065200
     34 H9          -0.2140    -1.2440     0.8120 hc         1 19H       0.065200
     35 H10          1.4800    -1.3010    -1.0250 h1         1 19H       0.030700
     36 H11          1.1950     0.4340    -1.3360 h1         1 19H       0.030700
     37 H12          3.7550     0.6060     2.3840 ha         1 19H       0.127500
     38 H13          7.2220     0.3250     2.6890 hc         1 19H       0.044700
     39 H14          6.9350     2.0480     2.3800 hc         1 19H       0.044700
     40 H15          5.8270     1.1350     3.4100 hc         1 19H       0.044700
     41 H16          6.8220    -0.6720    -2.5120 hc         1 19H       0.044700
     42 H17          5.3160    -0.1460    -3.2700 hc         1 19H       0.044700
     43 H18          6.5350     1.0510    -2.8200 hc         1 19H       0.044700
     44 H19          3.4490    -0.2020    -1.8420 ha         1 19H       0.127500
@<TRIPOS>BOND
     1     1     2 1   
     2     2     3 1   
     3     2     4 1   
     4     4     5 1   
     5     4    13 2   
     6     5     6 1   
     7     5    27 1   
     8     6     7 ar  
     9     6    12 ar  
    10     7     8 ar  
    11     7    28 1   
    12     8     9 1   
    13     8    10 ar  
    14    10    11 ar  
    15    10    29 1   
    16    11    12 ar  
    17    11    30 1   
    18    12    13 1   
    19    13    14 1   
    20    14    15 1   
    21    14    31 1   
    22    14    32 1   
    23    15    16 1   
    24    15    33 1   
    25    15    34 1   
    26    16    17 1   
    27    16    35 1   
    28    16    36 1   
    29    17    18 1   
    30    18    19 ar  
    31    18    26 ar  
    32    19    20 ar  
    33    19    37 1   
    34    20    21 1   
    35    20    22 ar  
    36    21    38 1   
    37    21    39 1   
    38    21    40 1   
    39    22    23 1   
    40    22    24 ar  
    41    24    25 1   
    42    24    26 ar  
    43    25    41 1   
    44    25    42 1   
    45    25    43 1   
    46    26    44 1   
@<TRIPOS>SUBSTRUCTURE
     1 19H         1 TEMP              0 ****  ****    0 ROOT
