@<TRIPOS>MOLECULE
19H
   44    46     1     0     0
SMALL
abcg2


@<TRIPOS>ATOM
      1 OAC         -3.5450    -4.0480     1.0890 o          1 19H      -0.708000
      2 CAQ         -2.7140    -3.3100     0.5210 c          1 19H       0.724200
      3 OAD         -1.5480    -3.5940     0.1930 o          1 19H      -0.708000
      4 CAW         -3.1920    -1.9190     0.2080 cc         1 19H      -0.073300
      5 NAO         -4.4620    -1.5490     0.5810 na         1 19H      -0.192700
      6 CAY         -4.6970    -0.2660     0.2190 ca         1 19H      -0.062200
      7 CAK         -5.8310     0.5280     0.3890 ca         1 19H      -0.119000
      8 CAT         -5.7580     1.8160    -0.0970 ca         1 19H       0.117000
      9 CL2         -7.1390     2.8590     0.0830 cl         1 19H      -0.259000
     10 CAG         -4.6160     2.3260    -0.7330 ca         1 19H      -0.157000
     11 CAH         -3.5040     1.5260    -0.8930 ca         1 19H      -0.064000
     12 CAZ         -3.5270     0.2100    -0.4180 ca         1 19H      -0.093800
     13 CAX         -2.5790    -0.8620    -0.4210 cd         1 19H      -0.167400
     14 CAN         -1.1900    -0.7780    -0.9630 c3         1 19H       0.025800
     15 CAL         -0.1650    -0.4580     0.1250 c3         1 19H      -0.081400
     16 CAM          1.2280    -0.3220    -0.4530 c3         1 19H       0.161600
     17 OAP          2.1280    -0.0630     0.6140 os         1 19H      -0.338100
     18 CAU          3.4300     0.1300     0.3400 ca         1 19H       0.175100
     19 CAI          4.2610     0.3690     1.4350 ca         1 19H      -0.177000
     20 CAR          5.6200     0.5920     1.2720 ca         1 19H      -0.028800
     21 CAA          6.4910     0.8520     2.4630 c3         1 19H      -0.044800
     22 CAV          6.1340     0.5670    -0.0260 ca         1 19H       0.070000
     23 CL1          7.8380     0.8450    -0.2570 cl         1 19H      -0.238000
     24 CAS          5.3370     0.3270    -1.1380 ca         1 19H      -0.028800
     25 CAB          5.9020     0.3020    -2.5260 c3         1 19H      -0.044800
     26 CAJ          3.9740     0.1090    -0.9390 ca         1 19H      -0.177000
     27 H2          -5.0980    -2.1700     1.0540 hn         1 19H       0.368000
     28 H3          -6.7220     0.1540     0.8760 ha         1 19H       0.118000
     29 H4          -4.6130     3.3450    -1.0950 ha         1 19H       0.107000
     30 H5          -2.6240     1.9240    -1.3830 ha         1 19H       0.105000
     31 H6          -0.9190    -1.7200    -1.4410 hc         1 19H       0.040200
     32 H7          -1.1520    -0.0070    -1.7390 hc         1 19H       0.040200
     33 H8          -0.4420     0.4700     0.6320 hc         1 19H       0.065200
     34 H9          -0.1830    -1.2580     0.8680 hc         1 19H       0.065200
     35 H10          1.5160    -1.2420    -0.9760 h1         1 19H       0.030700
     36 H11          1.2580     0.4950    -1.1830 h1         1 19H       0.030700
     37 H12          3.8350     0.3810     2.4310 ha         1 19H       0.127500
     38 H13          7.2870     0.1110     2.5460 hc         1 19H       0.044700
     39 H14          6.9700     1.8300     2.4010 hc         1 19H       0.044700
     40 H15          5.9070     0.8230     3.3810 hc         1 19H       0.044700
     41 H16          6.6640    -0.4720    -2.6340 hc         1 19H       0.044700
     42 H17          5.1210     0.1070    -3.2590 hc         1 19H       0.044700
     43 H18          6.3740     1.2520    -2.7830 hc         1 19H       0.044700
     44 H19          3.3570    -0.0710    -1.8080 ha         1 19H       0.127500
@<TRIPOS>BOND
     1     1     2 1   
     2     2     3 1   
     3     2     4 1   
     4     4     5 1   
     5     4    13 2   
     6     5     6 1   
     7     5    27 1   
     8     6     7 ar  
     9     6    12 ar  
    10     7     8 ar  
    11     7    28 1   
    12     8     9 1   
    13     8    10 ar  
    14    10    11 ar  
    15    10    29 1   
    16    11    12 ar  
    17    11    30 1   
    18    12    13 1   
    19    13    14 1   
    20    14    15 1   
    21    14    31 1   
    22    14    32 1   
    23    15    16 1   
    24    15    33 1   
    25    15    34 1   
    26    16    17 1   
    27    16    35 1   
    28    16    36 1   
    29    17    18 1   
    30    18    19 ar  
    31    18    26 ar  
    32    19    20 ar  
    33    19    37 1   
    34    20    21 1   
    35    20    22 ar  
    36    21    38 1   
    37    21    39 1   
    38    21    40 1   
    39    22    23 1   
    40    22    24 ar  
    41    24    25 1   
    42    24    26 ar  
    43    25    41 1   
    44    25    42 1   
    45    25    43 1   
    46    26    44 1   
@<TRIPOS>SUBSTRUCTURE
     1 19H         1 TEMP              0 ****  ****    0 ROOT
