@<TRIPOS>MOLECULE
19J
   33    34     1     0     0
SMALL
abcg2


@<TRIPOS>ATOM
      1 C1          -4.4300     2.0660    -0.0000 cc         1 19J       0.923100
      2 N1          -4.6380     3.3760     0.0540 nv         1 19J      -1.058200
      3 O1          -6.2190    -0.8680    -0.2310 o          1 19J      -0.517100
      4 C2          -5.2810    -0.0940    -0.1440 c          1 19J       0.639000
      5 N2          -5.4530     1.2500    -0.0870 nd         1 19J      -0.806100
      6 C3          -3.8840    -0.5990    -0.0890 ca         1 19J       0.187500
      7 N3          -3.1340     1.6520     0.0330 na         1 19J      -0.898100
      8 O2           0.3540    -3.0140     0.0840 o          1 19J      -0.610100
      9 C4          -2.8360     0.3220    -0.0050 ca         1 19J       0.551900
     10 N4          -1.5710    -0.0520     0.0390 nb         1 19J      -0.683000
     11 C5          -1.3350    -1.3520     0.0090 ca         1 19J       0.301500
     12 N5          -3.6330    -1.8970    -0.1200 nb         1 19J      -0.565000
     13 C6          -2.3710    -2.2830    -0.0690 ca         1 19J       0.299900
     14 C7           0.0910    -1.8200     0.0640 c          1 19J       0.500600
     15 N6           0.9970    -0.8460     0.0850 ns         1 19J      -0.457900
     16 C8           2.4070    -1.1070     0.1390 c3         1 19J       0.003000
     17 C9           3.1730     0.2020     0.0180 c          1 19J       0.573100
     18 O3           2.5960     1.2820    -0.0360 o          1 19J      -0.668100
     19 N7           4.4940     0.0590    -0.0120 ns         1 19J      -0.449900
     20 C10          5.4320     1.1500    -0.0790 c3         1 19J      -0.062000
     21 C11          6.8820     0.6250    -0.0400 c          1 19J       0.714000
     22 O5           7.0360    -0.6090     0.0330 o          1 19J      -0.724000
     23 O4           7.7630     1.5000    -0.0840 o          1 19J      -0.724000
     24 H1          -5.5840     3.7180     0.0580 hn         1 19J       0.513000
     25 H2          -3.8940     4.0420     0.1730 hn         1 19J       0.513000
     26 H11         -2.3730     2.3160     0.0910 hn         1 19J       0.521000
     27 H10         -2.1670    -3.3450    -0.0900 h4         1 19J       0.062100
     28 H9           0.6960     0.1200     0.0680 hn         1 19J       0.362500
     29 H7           2.6830    -1.5930     1.0800 h1         1 19J       0.067700
     30 H8           2.7080    -1.7850    -0.6640 h1         1 19J       0.067700
     31 H6           4.9190    -0.8580     0.0440 hn         1 19J       0.346500
     32 H4           5.2900     1.7320    -0.9950 h1         1 19J       0.038700
     33 H5           5.2830     1.8430     0.7550 h1         1 19J       0.038700
@<TRIPOS>BOND
     1     1     2 1   
     2     1     5 2   
     3     1     7 1   
     4     2    24 1   
     5     2    25 1   
     6     3     4 2   
     7     4     5 1   
     8     4     6 1   
     9     6     9 ar  
    10     6    12 ar  
    11     7     9 1   
    12     7    26 1   
    13     8    14 2   
    14     9    10 ar  
    15    10    11 ar  
    16    11    13 ar  
    17    11    14 1   
    18    12    13 ar  
    19    13    27 1   
    20    14    15 1   
    21    15    16 1   
    22    15    28 1   
    23    16    17 1   
    24    16    29 1   
    25    16    30 1   
    26    17    18 2   
    27    17    19 1   
    28    19    20 1   
    29    19    31 1   
    30    20    21 1   
    31    20    32 1   
    32    20    33 1   
    33    21    22 1   
    34    21    23 1   
@<TRIPOS>SUBSTRUCTURE
     1 19J         1 TEMP              0 ****  ****    0 ROOT
