@<TRIPOS>MOLECULE
19J
   33    34     1     0     0
SMALL
No Charge or Current Charge


@<TRIPOS>ATOM
      1 C1          -4.4810     2.1250    -0.0910 cc         1 19J       0.923100
      2 N1          -4.6400     3.4040    -0.1100 nv         1 19J      -1.058200
      3 O1          -6.4000    -0.7230    -0.1040 o          1 19J      -0.517100
      4 C2          -5.3790    -0.0470    -0.0900 c          1 19J       0.639000
      5 N2          -5.5010     1.3440    -0.1030 nd         1 19J      -0.806100
      6 C3          -3.9980    -0.6260    -0.0570 ca         1 19J       0.187500
      7 N3          -3.2290     1.6770    -0.0890 na         1 19J      -0.898100
      8 O2           0.3460    -3.0650     0.0540 o          1 19J      -0.610100
      9 C4          -2.9610     0.3380    -0.0570 ca         1 19J       0.551900
     10 N4          -1.6690    -0.0380    -0.0310 nb         1 19J      -0.683000
     11 C5          -1.4100    -1.3900    -0.0030 ca         1 19J       0.301500
     12 N5          -3.7700    -1.9800    -0.0290 nb         1 19J      -0.565000
     13 C6          -2.4600    -2.3460    -0.0020 ca         1 19J       0.299900
     14 C7           0.0330    -1.8790     0.0290 c          1 19J       0.500600
     15 N6           0.9960    -0.8880     0.0270 ns         1 19J      -0.457900
     16 C8           2.4560    -1.1190     0.0540 c3         1 19J       0.003000
     17 C9           3.2490     0.2090     0.0440 c          1 19J       0.573100
     18 O3           2.7110     1.3120     0.0170 o          1 19J      -0.668100
     19 N7           4.6190     0.0650     0.0680 ns         1 19J      -0.449900
     20 C10          5.5910     1.1840     0.0760 c3         1 19J      -0.062000
     21 C11          7.0570     0.6940    -0.0860 c          1 19J       0.714000
     22 O5           7.3470    -0.4250     0.3170 o          1 19J      -0.724000
     23 O4           7.8500     1.4320    -0.6530 o          1 19J      -0.724000
     24 H1          -5.6100     3.6440     0.0310 hn         1 19J       0.513000
     25 H2          -4.0040     3.9130     0.4860 hn         1 19J       0.513000
     26 H11         -2.4700     2.3300    -0.1590 hn         1 19J       0.521000
     27 H10         -2.2520    -3.4140     0.0200 h4         1 19J       0.062100
     28 H9           0.6510     0.0700     0.0050 hn         1 19J       0.362500
     29 H7           2.7240    -1.6770     0.9600 h1         1 19J       0.067700
     30 H8           2.7530    -1.7070    -0.8240 h1         1 19J       0.067700
     31 H6           4.9840    -0.8820     0.1000 hn         1 19J       0.346500
     32 H4           5.3560     1.8720    -0.7460 h1         1 19J       0.038700
     33 H5           5.5110     1.7260     1.0270 h1         1 19J       0.038700
@<TRIPOS>BOND
     1     1     2 1   
     2     1     5 2   
     3     1     7 1   
     4     2    24 1   
     5     2    25 1   
     6     3     4 2   
     7     4     5 1   
     8     4     6 1   
     9     6     9 ar  
    10     6    12 ar  
    11     7     9 1   
    12     7    26 1   
    13     8    14 2   
    14     9    10 ar  
    15    10    11 ar  
    16    11    13 ar  
    17    11    14 1   
    18    12    13 ar  
    19    13    27 1   
    20    14    15 1   
    21    15    16 1   
    22    15    28 1   
    23    16    17 1   
    24    16    29 1   
    25    16    30 1   
    26    17    18 2   
    27    17    19 1   
    28    19    20 1   
    29    19    31 1   
    30    20    21 1   
    31    20    32 1   
    32    20    33 1   
    33    21    22 1   
    34    21    23 1   
@<TRIPOS>SUBSTRUCTURE
     1 19J         1 TEMP              0 ****  ****    0 ROOT
