@<TRIPOS>MOLECULE
19K
   44    46     1     0     0
SMALL
bcc


@<TRIPOS>ATOM
      1 S           -5.8200     0.7980     0.0700 ss         1 19K      -0.172300
      2 C1          -8.1100    -0.8080     0.1350 c3         1 19K      -0.135400
      3 N1          -5.8270    -1.7400     0.1120 nc         1 19K      -0.660000
      4 O1           4.4970    -2.7920    -0.4760 o          1 19K      -0.201000
      5 C2          -6.6260    -0.7190     0.1140 cd         1 19K       0.458700
      6 N2          -0.6300     2.0050    -0.0210 nb         1 19K      -0.762000
      7 C3          -4.5110    -1.3800     0.0740 cc         1 19K       0.435600
      8 N3           0.3330    -0.1200     0.0300 nu         1 19K      -0.735300
      9 C4          -3.4850    -2.4630     0.0690 c3         1 19K      -0.120400
     10 N4           5.9020     0.7500     0.2260 nh         1 19K      -0.619000
     11 C5          -4.2950    -0.0210     0.0460 cd         1 19K      -0.254900
     12 N5           4.7570    -1.8870     0.2840 no         1 19K       0.319200
     13 C6          -3.0450     0.7200     0.0170 ca         1 19K       0.602800
     14 N6          -1.9210     0.0180     0.0300 nb         1 19K      -0.775000
     15 C7          -3.0100     2.1200    -0.0180 ca         1 19K      -0.417600
     16 C8          -1.7610     2.7010    -0.0350 ca         1 19K       0.480200
     17 C9          -0.7680     0.6850     0.0110 ca         1 19K       0.918900
     18 C10          1.6860     0.1760     0.0600 ca         1 19K       0.181600
     19 C11          2.2370     1.4600     0.0010 ca         1 19K      -0.117000
     20 C12          3.6090     1.6320     0.0580 ca         1 19K      -0.140000
     21 C13          4.5030     0.5720     0.1810 ca         1 19K       0.125600
     22 C14          6.4230     1.6620    -0.7750 c3         1 19K       0.166100
     23 C15          6.3960     1.0660     1.5570 c3         1 19K       0.166100
     24 C16          3.9240    -0.6990     0.2130 ca         1 19K      -0.120200
     25 C17          2.5590    -0.9080     0.1420 ca         1 19K      -0.146000
     26 H1          -8.5310    -0.5230    -0.8300 hc         1 19K       0.062367
     27 H1A         -8.4120    -1.8290     0.3530 hc         1 19K       0.062367
     28 H1B         -8.5380    -0.1470     0.8880 hc         1 19K       0.062367
     29 HN3          0.1010    -1.1020     0.0600 hn         1 19K       0.459800
     30 H4          -2.8330    -2.3950    -0.8000 hc         1 19K       0.058700
     31 H4A         -2.8410    -2.4090     0.9460 hc         1 19K       0.058700
     32 H4B         -3.9820    -3.4310     0.0610 hc         1 19K       0.058700
     33 H7          -3.8980     2.7350    -0.0320 ha         1 19K       0.159000
     34 H8          -1.6600     3.7800    -0.0620 h4         1 19K       0.026100
     35 H11          1.5950     2.3210    -0.0810 ha         1 19K       0.177000
     36 H12          3.9960     2.6420     0.0030 ha         1 19K       0.144000
     37 H14          7.5100     1.5790    -0.7940 h1         1 19K       0.039200
     38 H14A         6.0500     1.3910    -1.7620 h1         1 19K       0.039200
     39 H14B         6.1800     2.7180    -0.5930 h1         1 19K       0.039200
     40 H15          6.1250     2.0800     1.8800 h1         1 19K       0.039200
     41 H15A         6.0050     0.3620     2.2870 h1         1 19K       0.039200
     42 H15B         7.4850     0.9900     1.5670 h1         1 19K       0.039200
     43 H17          2.1670    -1.9170     0.1670 ha         1 19K       0.160000
     44 O2           5.6490    -1.9170     1.0950 o          1 19K      -0.201000
@<TRIPOS>BOND
     1     1     5 1   
     2     1    11 1   
     3     2     5 1   
     4     2    26 1   
     5     2    27 1   
     6     2    28 1   
     7     3     5 2   
     8     3     7 1   
     9     4    12 1   
    10     6    16 ar  
    11     6    17 ar  
    12     7     9 1   
    13     7    11 2   
    14     8    17 1   
    15     8    18 1   
    16     8    29 1   
    17     9    30 1   
    18     9    31 1   
    19     9    32 1   
    20    10    21 1   
    21    10    22 1   
    22    10    23 1   
    23    11    13 1   
    24    12    24 1   
    25    12    44 1   
    26    13    14 ar  
    27    13    15 ar  
    28    14    17 ar  
    29    15    16 ar  
    30    15    33 1   
    31    16    34 1   
    32    18    19 ar  
    33    18    25 ar  
    34    19    20 ar  
    35    19    35 1   
    36    20    21 ar  
    37    20    36 1   
    38    21    24 ar  
    39    22    37 1   
    40    22    38 1   
    41    22    39 1   
    42    23    40 1   
    43    23    41 1   
    44    23    42 1   
    45    24    25 ar  
    46    25    43 1   
@<TRIPOS>SUBSTRUCTURE
     1 19K         1 TEMP              0 ****  ****    0 ROOT
