@<TRIPOS>MOLECULE
19K
   44    46     1     0     0
SMALL
No Charge or Current Charge


@<TRIPOS>ATOM
      1 S           -5.9500     0.8030    -0.1400 ss         1 19K      -0.027400
      2 C1          -8.2200    -0.9120     0.0520 c3         1 19K      -0.135400
      3 N1          -5.9290    -1.7920     0.2500 nc         1 19K      -0.660000
      4 O1           4.7170    -2.0860    -1.7270 o          1 19K      -0.391000
      5 C2          -6.7280    -0.7540     0.0710 cd         1 19K       0.458700
      6 N2          -0.7000     2.0330    -0.1930 nb         1 19K      -0.236000
      7 C3          -4.6160    -1.3910     0.2280 cc         1 19K       0.370300
      8 N3           0.3220    -0.0640     0.0990 nu         1 19K      -0.928900
      9 C4          -3.5840    -2.4700     0.4210 c3         1 19K      -0.120400
     10 N4           5.8730     0.9960     0.4380 nh         1 19K      -0.757400
     11 C5          -4.4070    -0.0340     0.0310 cd         1 19K      -0.334500
     12 N5           4.9380    -1.5750    -0.6200 no         1 19K       0.699200
     13 C6          -3.1280     0.7070    -0.0460 ca         1 19K       0.274500
     14 N6          -1.9750     0.0180     0.0700 nb         1 19K      -0.249000
     15 C7          -3.0950     2.1030    -0.2420 ca         1 19K      -0.269000
     16 C8          -1.8430     2.7320    -0.3110 ca         1 19K       0.151900
     17 C9          -0.8270     0.7100     0.0030 ca         1 19K       0.392900
     18 C10          1.6910     0.2180     0.1940 ca         1 19K       0.320000
     19 C11          2.1800     1.4100     0.7580 ca         1 19K      -0.099000
     20 C12          3.5650     1.6450     0.8410 ca         1 19K      -0.122000
     21 C13          4.4920     0.6940     0.3750 ca         1 19K       0.264000
     22 C14          6.6930     1.0760    -0.7910 c3         1 19K       0.166100
     23 C15          6.4840     1.4920     1.6890 c3         1 19K       0.166100
     24 C16          4.0040    -0.5190    -0.1630 ca         1 19K      -0.120200
     25 C17          2.6100    -0.7460    -0.2520 ca         1 19K      -0.128000
     26 H1          -8.5280    -1.5970    -0.7460 hc         1 19K       0.062367
     27 H1A         -8.5800    -1.3150     1.0050 hc         1 19K       0.062367
     28 H1B         -8.7170     0.0490    -0.1170 hc         1 19K       0.062367
     29 HN3          0.1160    -1.0590     0.0120 hn         1 19K       0.515000
     30 H4          -2.9290    -2.5420    -0.4540 hc         1 19K       0.058700
     31 H4A         -2.9670    -2.2650     1.3030 hc         1 19K       0.058700
     32 H4B         -4.0500    -3.4520     0.5660 hc         1 19K       0.058700
     33 H7          -3.9990     2.6940    -0.3410 ha         1 19K       0.141000
     34 H8          -1.7530     3.8060    -0.4650 h4         1 19K       0.026100
     35 H11          1.4950     2.1560     1.1450 ha         1 19K       0.159000
     36 H12          3.9190     2.5820     1.2620 ha         1 19K       0.126000
     37 H14          7.4200     0.2530    -0.8210 h1         1 19K       0.039200
     38 H14A         6.0600     1.0110    -1.6860 h1         1 19K       0.039200
     39 H14B         7.2360     2.0290    -0.8310 h1         1 19K       0.039200
     40 H15          6.4910     2.5900     1.7070 h1         1 19K       0.039200
     41 H15A         5.9240     1.1300     2.5620 h1         1 19K       0.039200
     42 H15B         7.5180     1.1310     1.7810 h1         1 19K       0.039200
     43 H17          2.2420    -1.6800    -0.6700 ha         1 19K       0.142000
     44 O2           5.7180    -2.0580     0.2120 o          1 19K      -0.391000
@<TRIPOS>BOND
     1     1     5 1   
     2     1    11 1   
     3     2     5 1   
     4     2    26 1   
     5     2    27 1   
     6     2    28 1   
     7     3     5 2   
     8     3     7 1   
     9     4    12 1   
    10     6    16 ar  
    11     6    17 ar  
    12     7     9 1   
    13     7    11 2   
    14     8    17 1   
    15     8    18 1   
    16     8    29 1   
    17     9    30 1   
    18     9    31 1   
    19     9    32 1   
    20    10    21 1   
    21    10    22 1   
    22    10    23 1   
    23    11    13 1   
    24    12    24 1   
    25    12    44 1   
    26    13    14 ar  
    27    13    15 ar  
    28    14    17 ar  
    29    15    16 ar  
    30    15    33 1   
    31    16    34 1   
    32    18    19 ar  
    33    18    25 ar  
    34    19    20 ar  
    35    19    35 1   
    36    20    21 ar  
    37    20    36 1   
    38    21    24 ar  
    39    22    37 1   
    40    22    38 1   
    41    22    39 1   
    42    23    40 1   
    43    23    41 1   
    44    23    42 1   
    45    24    25 ar  
    46    25    43 1   
@<TRIPOS>SUBSTRUCTURE
     1 19K         1 TEMP              0 ****  ****    0 ROOT
