@<TRIPOS>MOLECULE
19L
   54    57     1     0     0
SMALL
bcc


@<TRIPOS>ATOM
      1 C           -4.2490    -0.4680     2.6710 cc         1 19L       0.921100
      2 N           -4.4750     0.3100     3.7230 nv         1 19L      -0.950800
      3 O           -5.3750    -3.4190     1.2960 o          1 19L      -0.520100
      4 C1          -4.7370    -2.3930     1.4580 c          1 19L       0.640000
      5 N1          -4.9390    -1.5730     2.5200 nd         1 19L      -0.808100
      6 C2          -3.6910    -1.9880     0.4830 ca         1 19L       0.183500
      7 N2          -3.2920    -0.0500     1.7970 na         1 19L      -0.842900
      8 O1          -0.4080    -1.3970    -3.0790 o          1 19L      -0.620100
      9 C3          -2.9910    -0.7990     0.6980 ca         1 19L       0.552900
     10 N3          -2.0440    -0.3820    -0.1200 nb         1 19L      -0.673000
     11 C4          -1.7780    -1.1490    -1.1610 ca         1 19L       0.311500
     12 N4          -3.4270    -2.7390    -0.5740 nb         1 19L      -0.567000
     13 C5          -2.4800    -2.3310    -1.3990 ca         1 19L       0.296900
     14 C6          -0.6590    -0.7430    -2.0770 c          1 19L       0.574600
     15 N5          -0.0010     0.3450    -1.6830 ns         1 19L      -0.509900
     16 C7           1.2310     0.7830    -2.2830 c3         1 19L       0.019700
     17 C9           2.0260     1.4970    -1.1870 c          1 19L       0.666100
     18 O3           1.4570     2.0570    -0.2620 o          1 19L      -0.635100
     19 C8           1.0250     1.6860    -3.4940 c3         1 19L       0.128400
     20 O2           0.4020     2.8740    -3.0810 oh         1 19L      -0.580800
     21 N6           3.3480     1.4460    -1.3530 ns         1 19L      -0.520900
     22 C10          4.3260     1.9330    -0.4100 c3         1 19L      -0.035300
     23 C20          5.6040     2.3910    -1.1490 c          1 19L       0.928600
     24 O4           5.7300     2.0390    -2.3380 o          1 19L      -0.826300
     25 C11          4.7000     0.8390     0.6150 c3         1 19L      -0.018200
     26 C12          3.5210     0.2600     1.3240 cc         1 19L      -0.102400
     27 C13          2.9800     0.7090     2.4940 cd         1 19L      -0.113100
     28 C15          2.6610    -0.7950     0.8730 ca         1 19L      -0.088800
     29 N7           1.8410     0.0130     2.7900 na         1 19L      -0.181400
     30 C14          1.6170    -0.9150     1.8170 ca         1 19L      -0.048200
     31 C16          2.6650    -1.6480    -0.2370 ca         1 19L      -0.074000
     32 C19          0.5980    -1.8570     1.6870 ca         1 19L      -0.162000
     33 C17          1.6540    -2.5800    -0.3760 ca         1 19L      -0.176000
     34 C18          0.6310    -2.6850     0.5810 ca         1 19L      -0.128000
     35 O5           6.4120     3.0410    -0.4630 o          1 19L      -0.826300
     36 H1          -5.1530     0.0190     4.4070 hn         1 19L       0.456300
     37 H2          -3.9510     1.1490     3.9020 hn         1 19L       0.456300
     38 H20         -2.7950     0.8190     1.9420 hn         1 19L       0.464800
     39 H19         -2.2600    -2.9490    -2.2590 h4         1 19L       0.060100
     40 H18         -0.2640     0.7800    -0.8080 hn         1 19L       0.365500
     41 H14          1.7890    -0.0920    -2.6270 h1         1 19L       0.078700
     42 H15          2.0050     1.8710    -3.9540 h1         1 19L       0.032200
     43 H16          0.4260     1.1390    -4.2320 h1         1 19L       0.032200
     44 H17          0.2370     3.4120    -3.8610 ho         1 19L       0.394000
     45 H13          3.7300     0.9980    -2.1720 hn         1 19L       0.329500
     46 H4           3.8960     2.7790     0.1290 h1         1 19L       0.065700
     47 H5           5.2500     0.0480     0.0930 hc         1 19L       0.054200
     48 H6           5.3950     1.2790     1.3320 hc         1 19L       0.054200
     49 H12          3.3250     1.4950     3.1480 h4         1 19L       0.159000
     50 H11          1.2840     0.1420     3.6170 hn         1 19L       0.282700
     51 H7           3.4490    -1.5760    -0.9810 ha         1 19L       0.138000
     52 H10         -0.1930    -1.9370     2.4230 ha         1 19L       0.115000
     53 H8           1.6490    -3.2430    -1.2300 ha         1 19L       0.128000
     54 H9          -0.1420    -3.4320     0.4530 ha         1 19L       0.119000
@<TRIPOS>BOND
     1     1     2 1   
     2     1     5 2   
     3     1     7 1   
     4     2    36 1   
     5     2    37 1   
     6     3     4 2   
     7     4     5 1   
     8     4     6 1   
     9     6     9 ar  
    10     6    12 ar  
    11     7     9 1   
    12     7    38 1   
    13     8    14 2   
    14     9    10 ar  
    15    10    11 ar  
    16    11    13 ar  
    17    11    14 1   
    18    12    13 ar  
    19    13    39 1   
    20    14    15 1   
    21    15    16 1   
    22    15    40 1   
    23    16    17 1   
    24    16    19 1   
    25    16    41 1   
    26    17    18 2   
    27    17    21 1   
    28    19    20 1   
    29    19    42 1   
    30    19    43 1   
    31    20    44 1   
    32    21    22 1   
    33    21    45 1   
    34    22    23 1   
    35    22    25 1   
    36    22    46 1   
    37    23    24 1   
    38    23    35 1   
    39    25    26 1   
    40    25    47 1   
    41    25    48 1   
    42    26    27 2   
    43    26    28 1   
    44    27    29 1   
    45    27    49 1   
    46    28    30 ar  
    47    28    31 ar  
    48    29    30 1   
    49    29    50 1   
    50    30    32 ar  
    51    31    33 ar  
    52    31    51 1   
    53    32    34 ar  
    54    32    52 1   
    55    33    34 ar  
    56    33    53 1   
    57    34    54 1   
@<TRIPOS>SUBSTRUCTURE
     1 19L         1 TEMP              0 ****  ****    0 ROOT
