@<TRIPOS>MOLECULE
19M
   66    69     1     0     0
SMALL
abcg2


@<TRIPOS>ATOM
      1 C1          -6.2660     3.2850     0.3380 cc         1 19M       0.924100
      2 N1          -6.1390     4.3160     1.1630 nv         1 19M      -1.057200
      3 O1          -8.5730     1.9300    -1.8330 o          1 19M      -0.513100
      4 C2          -7.5460     2.0900    -1.1950 c          1 19M       0.638000
      5 N2          -7.3780     3.1300    -0.3400 nd         1 19M      -0.804100
      6 C3          -6.4140     1.1370    -1.3280 ca         1 19M       0.192500
      7 N3          -5.2030     2.4370     0.2500 na         1 19M      -0.899100
      8 O2          -3.1850    -2.3970    -2.3010 o          1 19M      -0.604100
      9 C4          -5.2550     1.3550    -0.5780 ca         1 19M       0.554900
     10 N4          -4.2120     0.5500    -0.6450 nb         1 19M      -0.687000
     11 C5          -4.3110    -0.4850    -1.4600 ca         1 19M       0.298500
     12 N5          -6.5000     0.0970    -2.1390 nb         1 19M      -0.562000
     13 C6          -5.4620    -0.7170    -2.2140 ca         1 19M       0.301900
     14 C7          -3.1410    -1.4210    -1.5660 c          1 19M       0.506600
     15 N6          -2.0960    -1.0850    -0.8120 ns         1 19M      -0.464900
     16 C8          -0.8840    -1.8520    -0.7850 c3         1 19M       0.010000
     17 C9           0.1510    -1.1300     0.0600 c          1 19M       0.597100
     18 O3          -0.1520    -0.1970     0.7850 o          1 19M      -0.624100
     19 N7           1.3890    -1.6260    -0.0660 ns         1 19M      -0.474900
     20 C10          2.5100    -1.2090     0.7330 c3         1 19M       0.019700
     21 C18          3.7160    -0.9560    -0.1660 c          1 19M       0.598100
     22 O4           3.8940    -1.6180    -1.1800 o          1 19M      -0.625100
     23 C11          2.8850    -2.2790     1.7780 c3         1 19M      -0.056100
     24 C12          1.7340    -2.5680     2.6950 ca         1 19M      -0.061300
     25 C13          1.5230    -1.7950     3.8340 ca         1 19M      -0.105000
     26 C17          0.8240    -3.5800     2.3990 ca         1 19M      -0.105000
     27 C14          0.4280    -2.0220     4.6560 ca         1 19M      -0.113500
     28 C16         -0.2750    -3.8090     3.2160 ca         1 19M      -0.113500
     29 C15         -0.4770    -3.0290     4.3470 ca         1 19M      -0.121000
     30 N8           4.5350     0.0080     0.2610 ns         1 19M      -0.439900
     31 C19          5.8810     0.1640    -0.2340 c3         1 19M      -0.046300
     32 C27          6.8610    -0.8750     0.3800 c          1 19M       0.715000
     33 O6           6.3990    -1.6920     1.1930 o          1 19M      -0.718500
     34 C20          6.3570     1.5990     0.0130 c3         1 19M      -0.037100
     35 C21          5.5060     2.6170    -0.6930 ca         1 19M      -0.049300
     36 C22          5.6740     2.8500    -2.0570 ca         1 19M      -0.110000
     37 C26          4.5150     3.3240    -0.0190 ca         1 19M      -0.110000
     38 C23          4.8740     3.7650    -2.7280 ca         1 19M      -0.115500
     39 C25          3.7110     4.2400    -0.6850 ca         1 19M      -0.115500
     40 C24          3.8870     4.4640    -2.0430 ca         1 19M      -0.132000
     41 O5           8.0370    -0.7850    -0.0230 o          1 19M      -0.718500
     42 H2          -6.9110     4.9510     1.2720 hn         1 19M       0.514000
     43 H3          -5.3090     4.4810     1.7070 hn         1 19M       0.514000
     44 H4          -4.3660     2.5880     0.7970 hn         1 19M       0.520000
     45 H1          -5.5350    -1.5680    -2.8770 h4         1 19M       0.062100
     46 H26         -2.1520    -0.2680    -0.2200 hn         1 19M       0.363500
     47 H5          -1.0530    -2.8440    -0.3510 h1         1 19M       0.070700
     48 H6          -0.4990    -2.0130    -1.7960 h1         1 19M       0.070700
     49 H25          1.5470    -2.3770    -0.7210 hn         1 19M       0.332500
     50 H17          2.2270    -0.2910     1.2500 h1         1 19M       0.081700
     51 H18          3.1950    -3.1870     1.2550 hc         1 19M       0.085200
     52 H19          3.7540    -1.9260     2.3360 hc         1 19M       0.085200
     53 H24          2.2260    -1.0070     4.0820 ha         1 19M       0.111000
     54 H20          0.9760    -4.2010     1.5240 ha         1 19M       0.111000
     55 H23          0.2840    -1.4140     5.5400 ha         1 19M       0.103000
     56 H21         -0.9740    -4.5990     2.9700 ha         1 19M       0.103000
     57 H22         -1.3320    -3.2070     4.9870 ha         1 19M       0.101000
     58 H16          4.3410     0.4070     1.1670 hn         1 19M       0.292500
     59 H8           5.8580    -0.0030    -1.3140 h1         1 19M       0.071700
     60 H9           6.3670     1.8010     1.0890 hc         1 19M       0.059700
     61 H10          7.3900     1.6690    -0.3290 hc         1 19M       0.059700
     62 H15          6.4420     2.3130    -2.6020 ha         1 19M       0.111000
     63 H11          4.3720     3.1620     1.0440 ha         1 19M       0.111000
     64 H14          5.0240     3.9350    -3.7870 ha         1 19M       0.098000
     65 H12          2.9470     4.7800    -0.1390 ha         1 19M       0.098000
     66 H13          3.2650     5.1790    -2.5660 ha         1 19M       0.096000
@<TRIPOS>BOND
     1     1     2 1   
     2     1     5 2   
     3     1     7 1   
     4     2    42 1   
     5     2    43 1   
     6     3     4 2   
     7     4     5 1   
     8     4     6 1   
     9     6     9 ar  
    10     6    12 ar  
    11     7     9 1   
    12     7    44 1   
    13     8    14 2   
    14     9    10 ar  
    15    10    11 ar  
    16    11    13 ar  
    17    11    14 1   
    18    12    13 ar  
    19    13    45 1   
    20    14    15 1   
    21    15    16 1   
    22    15    46 1   
    23    16    17 1   
    24    16    47 1   
    25    16    48 1   
    26    17    18 2   
    27    17    19 1   
    28    19    20 1   
    29    19    49 1   
    30    20    21 1   
    31    20    23 1   
    32    20    50 1   
    33    21    22 2   
    34    21    30 1   
    35    23    24 1   
    36    23    51 1   
    37    23    52 1   
    38    24    25 ar  
    39    24    26 ar  
    40    25    27 ar  
    41    25    53 1   
    42    26    28 ar  
    43    26    54 1   
    44    27    29 ar  
    45    27    55 1   
    46    28    29 ar  
    47    28    56 1   
    48    29    57 1   
    49    30    31 1   
    50    30    58 1   
    51    31    32 1   
    52    31    34 1   
    53    31    59 1   
    54    32    33 1   
    55    32    41 1   
    56    34    35 1   
    57    34    60 1   
    58    34    61 1   
    59    35    36 ar  
    60    35    37 ar  
    61    36    38 ar  
    62    36    62 1   
    63    37    39 ar  
    64    37    63 1   
    65    38    40 ar  
    66    38    64 1   
    67    39    40 ar  
    68    39    65 1   
    69    40    66 1   
@<TRIPOS>SUBSTRUCTURE
     1 19M         1 TEMP              0 ****  ****    0 ROOT
