@<TRIPOS>MOLECULE
19M
   66    69     1     0     0
SMALL
No Charge or Current Charge


@<TRIPOS>ATOM
      1 C1          -6.5350     2.9600     1.1740 cc         1 19M       0.924100
      2 N1          -6.4880     3.6980     2.2300 nv         1 19M      -1.057200
      3 O1          -8.7750     2.0810    -1.2760 o          1 19M      -0.513100
      4 C2          -7.7110     2.1010    -0.6710 c          1 19M       0.638000
      5 N2          -7.6150     2.8820     0.4820 nd         1 19M      -0.804100
      6 C3          -6.4990     1.3310    -1.0950 ca         1 19M       0.192500
      7 N3          -5.4170     2.3240     0.8400 na         1 19M      -0.899100
      8 O2          -2.7790    -1.4210    -2.9430 o          1 19M      -0.604100
      9 C4          -5.3720     1.5080    -0.2560 ca         1 19M       0.554900
     10 N4          -4.2110     0.8790    -0.5160 nb         1 19M      -0.687000
     11 C5          -4.1770     0.0630    -1.6250 ca         1 19M       0.298500
     12 N5          -6.4920     0.5240    -2.2070 nb         1 19M      -0.562000
     13 C6          -5.3140    -0.1060    -2.4570 ca         1 19M       0.301900
     14 C7          -2.8910    -0.6780    -1.9730 c          1 19M       0.506600
     15 N6          -1.8310    -0.4630    -1.1150 ns         1 19M      -0.464900
     16 C8          -0.4910    -1.0740    -1.2460 c3         1 19M       0.010000
     17 C9           0.4570    -0.6370    -0.1070 c          1 19M       0.597100
     18 O3           0.1220     0.1440     0.7770 o          1 19M      -0.624100
     19 N7           1.7200    -1.1860    -0.1680 ns         1 19M      -0.474900
     20 C10          2.7940    -0.9710     0.8310 c3         1 19M       0.019700
     21 C18          4.1600    -0.7730     0.1180 c          1 19M       0.598100
     22 O4           4.3610    -1.1120    -1.0440 o          1 19M      -0.625100
     23 C11          2.8540    -2.1460     1.8430 c3         1 19M      -0.056100
     24 C12          1.5270    -2.4050     2.5490 ca         1 19M      -0.061300
     25 C13          1.1350    -1.6010     3.6370 ca         1 19M      -0.105000
     26 C17          0.6790    -3.4440     2.1160 ca         1 19M      -0.105000
     27 C14         -0.0900    -1.8330     4.2850 ca         1 19M      -0.113500
     28 C16         -0.5470    -3.6750     2.7640 ca         1 19M      -0.113500
     29 C15         -0.9320    -2.8700     3.8480 ca         1 19M      -0.121000
     30 N8           5.1380    -0.1810     0.8950 ns         1 19M      -0.439900
     31 C19          6.4720     0.2530     0.4090 c3         1 19M      -0.046300
     32 C27          7.5690    -0.0560     1.4690 c          1 19M       0.715000
     33 O6           7.3810     0.3010     2.6250 o          1 19M      -0.718500
     34 C20          6.4730     1.7520     0.0140 c3         1 19M      -0.037100
     35 C21          5.3970     2.1090    -1.0060 ca         1 19M      -0.049300
     36 C22          5.6190     1.8890    -2.3800 ca         1 19M      -0.110000
     37 C26          4.1650     2.6480    -0.5840 ca         1 19M      -0.110000
     38 C23          4.6220     2.2040    -3.3200 ca         1 19M      -0.115500
     39 C25          3.1670     2.9600    -1.5230 ca         1 19M      -0.115500
     40 C24          3.3950     2.7380    -2.8910 ca         1 19M      -0.132000
     41 O5           8.5370    -0.7170     1.1200 o          1 19M      -0.718500
     42 H2          -7.4120     4.0230     2.4770 hn         1 19M       0.514000
     43 H3          -5.9790     3.2930     3.0010 hn         1 19M       0.514000
     44 H4          -4.5800     2.4800     1.3710 hn         1 19M       0.520000
     45 H1          -5.2830    -0.7520    -3.3340 h4         1 19M       0.062100
     46 H26         -2.0090     0.1670    -0.3340 hn         1 19M       0.363500
     47 H5          -0.5800    -2.1680    -1.2190 h1         1 19M       0.070700
     48 H6          -0.0420    -0.7790    -2.2030 h1         1 19M       0.070700
     49 H25          1.9230    -1.7800    -0.9650 hn         1 19M       0.332500
     50 H17          2.5870    -0.0440     1.3800 h1         1 19M       0.081700
     51 H18          3.1820    -3.0510     1.3160 hc         1 19M       0.085200
     52 H19          3.6320    -1.9400     2.5890 hc         1 19M       0.085200
     53 H24          1.7790    -0.7930     3.9790 ha         1 19M       0.111000
     54 H20          0.9680    -4.0710     1.2760 ha         1 19M       0.111000
     55 H23         -0.3880    -1.2080     5.1240 ha         1 19M       0.103000
     56 H21         -1.1980    -4.4770     2.4240 ha         1 19M       0.103000
     57 H22         -1.8810    -3.0490     4.3490 ha         1 19M       0.101000
     58 H16          4.8930     0.0370     1.8540 hn         1 19M       0.292500
     59 H8           6.7230    -0.3350    -0.4830 h1         1 19M       0.071700
     60 H9           6.3460     2.3600     0.9180 hc         1 19M       0.059700
     61 H10          7.4630     2.0110    -0.3830 hc         1 19M       0.059700
     62 H15          6.5640     1.4680    -2.7180 ha         1 19M       0.111000
     63 H11          3.9780     2.8200     0.4740 ha         1 19M       0.111000
     64 H14          4.7990     2.0300    -4.3780 ha         1 19M       0.098000
     65 H12          2.2170     3.3730    -1.1900 ha         1 19M       0.098000
     66 H13          2.6230     2.9790    -3.6180 ha         1 19M       0.096000
@<TRIPOS>BOND
     1     1     2 1   
     2     1     5 2   
     3     1     7 1   
     4     2    42 1   
     5     2    43 1   
     6     3     4 2   
     7     4     5 1   
     8     4     6 1   
     9     6     9 ar  
    10     6    12 ar  
    11     7     9 1   
    12     7    44 1   
    13     8    14 2   
    14     9    10 ar  
    15    10    11 ar  
    16    11    13 ar  
    17    11    14 1   
    18    12    13 ar  
    19    13    45 1   
    20    14    15 1   
    21    15    16 1   
    22    15    46 1   
    23    16    17 1   
    24    16    47 1   
    25    16    48 1   
    26    17    18 2   
    27    17    19 1   
    28    19    20 1   
    29    19    49 1   
    30    20    21 1   
    31    20    23 1   
    32    20    50 1   
    33    21    22 2   
    34    21    30 1   
    35    23    24 1   
    36    23    51 1   
    37    23    52 1   
    38    24    25 ar  
    39    24    26 ar  
    40    25    27 ar  
    41    25    53 1   
    42    26    28 ar  
    43    26    54 1   
    44    27    29 ar  
    45    27    55 1   
    46    28    29 ar  
    47    28    56 1   
    48    29    57 1   
    49    30    31 1   
    50    30    58 1   
    51    31    32 1   
    52    31    34 1   
    53    31    59 1   
    54    32    33 1   
    55    32    41 1   
    56    34    35 1   
    57    34    60 1   
    58    34    61 1   
    59    35    36 ar  
    60    35    37 ar  
    61    36    38 ar  
    62    36    62 1   
    63    37    39 ar  
    64    37    63 1   
    65    38    40 ar  
    66    38    64 1   
    67    39    40 ar  
    68    39    65 1   
    69    40    66 1   
@<TRIPOS>SUBSTRUCTURE
     1 19M         1 TEMP              0 ****  ****    0 ROOT
