@<TRIPOS>MOLECULE
19P
   59    63     1     0     0
SMALL
No Charge or Current Charge


@<TRIPOS>ATOM
      1 C1          43.8000    13.1620    30.4620 cp         1 19P       0.438500
      2 C2          44.3000    12.0520    29.7450 ca         1 19P      -0.150000
      3 C3          45.6670    11.9820    29.4350 ca         1 19P      -0.041000
      4 C4          46.5290    13.0140    29.8450 ca         1 19P       0.217000
      5 C5          45.9570    14.0950    30.6040 ca         1 19P       0.260000
      6 N6          44.6280    14.1400    30.8800 nb         1 19P      -0.678000
      7 N7          47.8340    12.9650    29.4600 nb         1 19P      -0.649000
      8 C8          48.6430    13.9950    29.7930 ca         1 19P       0.369900
      9 C9          48.1920    15.0410    30.6100 ca         1 19P      -0.076400
     10 C10         46.8670    15.1000    31.0470 ca         1 19P       0.056600
     11 C11         42.3540    13.3180    30.8150 cp         1 19P      -0.223500
     12 C12         41.3440    12.6810    30.0540 ca         1 19P       0.357900
     13 N13         40.0210    12.7850    30.3140 nb         1 19P      -0.678000
     14 C14         39.6380    13.5430    31.3640 ca         1 19P       0.371300
     15 C15         40.5550    14.2160    32.1850 ca         1 19P      -0.168000
     16 C16         41.9260    14.1110    31.9100 ca         1 19P      -0.037000
     17 C17         38.1460    13.6250    31.6230 c3         1 19P      -0.151400
     18 N18         48.7750    16.3220    30.8030 n          1 19P      -0.278000
     19 C19         47.8560    17.1920    31.3870 c          1 19P       0.578000
     20 N20         46.6680    16.4560    31.5350 n          1 19P      -0.274000
     21 C21         45.5650    16.9420    32.4130 c6         1 19P       0.135700
     22 C22         44.2950    17.3500    31.6410 c6         1 19P      -0.108900
     23 C23         43.2260    17.9450    32.5830 c6         1 19P       0.099500
     24 N24         42.9390    17.1160    33.7960 n          1 19P      -0.394800
     25 C25         44.1540    16.6130    34.5080 c6         1 19P       0.099500
     26 C26         45.2330    16.0010    33.5880 c6         1 19P      -0.108900
     27 O27         48.0650    18.3440    31.7440 o          1 19P      -0.562000
     28 C28         50.2160    16.6140    30.6890 c3         1 19P       0.105300
     29 C29         41.7400    17.2980    34.5340 c          1 19P       0.566100
     30 O30         41.6820    16.9770    35.7180 o          1 19P      -0.634100
     31 C31         40.4400    17.7920    33.8060 c3         1 19P       0.097300
     32 O32         39.2520    17.2850    34.4570 oh         1 19P      -0.662000
     33 C33         40.3430    19.3340    33.7590 c3         1 19P      -0.112100
     34 H1          43.6390    11.2510    29.4320 ha         1 19P       0.133000
     35 H2          46.0560    11.1430    28.8650 ha         1 19P       0.140000
     36 H3          49.6510    13.9880    29.3790 h4         1 19P       0.031100
     37 H4          41.5990    12.0730    29.1870 h4         1 19P       0.017100
     38 H5          40.2050    14.8080    33.0260 ha         1 19P       0.138000
     39 H6          42.6430    14.6250    32.5450 ha         1 19P       0.133000
     40 H7          37.5780    13.6400    30.6860 hc         1 19P       0.057367
     41 H8          37.8080    12.7640    32.2100 hc         1 19P       0.057367
     42 H9          37.8890    14.5330    32.1790 hc         1 19P       0.057367
     43 H10         45.9260    17.8680    32.8850 h1         1 19P       0.082700
     44 H11         44.5520    18.0890    30.8700 hc         1 19P       0.071950
     45 H12         43.8580    16.5010    31.1100 hc         1 19P       0.071950
     46 H13         43.5620    18.9370    32.9190 h1         1 19P       0.059200
     47 H14         42.3150    18.0980    31.9900 h1         1 19P       0.059200
     48 H15         43.8650    15.8520    35.2470 h1         1 19P       0.059200
     49 H16         44.5950    17.4510    35.0680 h1         1 19P       0.059200
     50 H17         44.8850    15.0270    33.2350 hc         1 19P       0.071950
     51 H18         46.1410    15.8040    34.1720 hc         1 19P       0.071950
     52 H19         50.5230    17.3160    31.4750 h1         1 19P       0.056367
     53 H20         50.7970    15.6890    30.7960 h1         1 19P       0.056367
     54 H21         50.4240    17.0590    29.7080 h1         1 19P       0.056367
     55 H22         40.4760    17.4120    32.7770 h1         1 19P       0.072700
     56 H23         39.5240    17.0790    35.3840 ho         1 19P       0.472000
     57 H24         41.2020    19.7740    33.2410 hc         1 19P       0.048700
     58 H25         39.4350    19.6460    33.2290 hc         1 19P       0.048700
     59 H26         40.3100    19.7520    34.7730 hc         1 19P       0.048700
@<TRIPOS>BOND
     1     1     2 ar  
     2     1     6 ar  
     3     1    11 1   
     4     2     3 ar  
     5     2    34 1   
     6     3     4 ar  
     7     3    35 1   
     8     4     5 ar  
     9     4     7 ar  
    10     5     6 ar  
    11     5    10 ar  
    12     7     8 ar  
    13     8     9 ar  
    14     8    36 1   
    15     9    10 ar  
    16     9    18 1   
    17    10    20 1   
    18    11    12 ar  
    19    11    16 ar  
    20    12    13 ar  
    21    12    37 1   
    22    13    14 ar  
    23    14    15 ar  
    24    14    17 1   
    25    15    16 ar  
    26    15    38 1   
    27    16    39 1   
    28    17    40 1   
    29    17    41 1   
    30    17    42 1   
    31    18    19 1   
    32    18    28 1   
    33    19    20 1   
    34    19    27 2   
    35    20    21 1   
    36    21    22 1   
    37    21    26 1   
    38    21    43 1   
    39    22    23 1   
    40    22    44 1   
    41    22    45 1   
    42    23    24 1   
    43    23    46 1   
    44    23    47 1   
    45    24    25 1   
    46    24    29 1   
    47    25    26 1   
    48    25    48 1   
    49    25    49 1   
    50    26    50 1   
    51    26    51 1   
    52    28    52 1   
    53    28    53 1   
    54    28    54 1   
    55    29    30 2   
    56    29    31 1   
    57    31    32 1   
    58    31    33 1   
    59    31    55 1   
    60    32    56 1   
    61    33    57 1   
    62    33    58 1   
    63    33    59 1   
@<TRIPOS>SUBSTRUCTURE
     1 19P         1 TEMP              0 ****  ****    0 ROOT
