@<TRIPOS>MOLECULE
19P
   59    63     1     0     0
SMALL
abcg2


@<TRIPOS>ATOM
      1 C1          43.7240    13.3370    30.5080 cp         1 19P       0.438500
      2 C2          44.1390    12.3260    29.6020 ca         1 19P      -0.150000
      3 C3          45.4390    12.2980    29.1850 ca         1 19P      -0.041000
      4 C4          46.3530    13.2730    29.6420 ca         1 19P       0.217000
      5 C5          45.8420    14.2580    30.5510 ca         1 19P       0.260000
      6 N6          44.5550    14.2550    30.9670 nb         1 19P      -0.678000
      7 N7          47.6360    13.2200    29.1990 nb         1 19P      -0.649000
      8 C8          48.4830    14.1400    29.6210 ca         1 19P       0.369900
      9 C9          48.0800    15.1520    30.4950 ca         1 19P      -0.076400
     10 C10         46.7730    15.2390    30.9720 ca         1 19P       0.056600
     11 C11         42.3260    13.3920    30.9820 cp         1 19P      -0.223500
     12 C12         41.2680    12.9480    30.1890 ca         1 19P       0.357900
     13 N13         39.9860    12.9920    30.5600 nb         1 19P      -0.678000
     14 C14         39.6830    13.4780    31.7700 ca         1 19P       0.371300
     15 C15         40.6780    13.9410    32.6360 ca         1 19P      -0.168000
     16 C16         41.9990    13.9070    32.2390 ca         1 19P      -0.037000
     17 C17         38.2380    13.5190    32.1710 c3         1 19P      -0.151400
     18 N18         48.8000    16.2020    31.0260 n          1 19P      -0.278000
     19 C19         47.9780    16.9630    31.8280 c          1 19P       0.578000
     20 N20         46.7150    16.3560    31.7880 n          1 19P      -0.274000
     21 C21         45.6110    16.9500    32.5440 c6         1 19P       0.135700
     22 C22         44.4480    17.3930    31.6620 c6         1 19P      -0.108900
     23 C23         43.3940    18.1010    32.5090 c6         1 19P       0.099500
     24 N24         42.9640    17.2630    33.6290 n          1 19P      -0.394800
     25 C25         44.0540    16.7910    34.4900 c6         1 19P       0.099500
     26 C26         45.1280    16.0620    33.6870 c6         1 19P      -0.108900
     27 O27         48.2840    17.9700    32.4520 o          1 19P      -0.562000
     28 C28         50.2010    16.4870    30.7870 c3         1 19P       0.105300
     29 C29         41.6870    17.0530    33.9890 c          1 19P       0.566100
     30 O30         41.3660    16.3780    34.9770 o          1 19P      -0.634100
     31 C31         40.5520    17.6970    33.1760 c3         1 19P       0.097300
     32 O32         39.3410    17.0350    33.5130 oh         1 19P      -0.662000
     33 C33         40.4380    19.1890    33.4940 c3         1 19P      -0.112100
     34 H1          43.4380    11.5750    29.2680 ha         1 19P       0.133000
     35 H2          45.7980    11.5350    28.5050 ha         1 19P       0.140000
     36 H3          49.5050    14.0910    29.2640 h4         1 19P       0.031100
     37 H4          41.4580    12.5590    29.1950 h4         1 19P       0.017100
     38 H5          40.4100    14.3310    33.6080 ha         1 19P       0.138000
     39 H6          42.7800    14.2620    32.8940 ha         1 19P       0.133000
     40 H7          37.6090    13.1280    31.3720 hc         1 19P       0.057367
     41 H8          38.0700    12.9290    33.0750 hc         1 19P       0.057367
     42 H9          37.9320    14.5430    32.3950 hc         1 19P       0.057367
     43 H10         46.0600    17.8430    32.9810 h1         1 19P       0.082700
     44 H11         44.8040    18.0850    30.8960 hc         1 19P       0.071950
     45 H12         44.0050    16.5290    31.1710 hc         1 19P       0.071950
     46 H13         43.8030    19.0340    32.9130 h1         1 19P       0.059200
     47 H14         42.5440    18.3560    31.8860 h1         1 19P       0.059200
     48 H15         43.6300    16.1410    35.2480 h1         1 19P       0.059200
     49 H16         44.4930    17.6610    34.9900 h1         1 19P       0.059200
     50 H17         44.7320    15.1300    33.2860 hc         1 19P       0.071950
     51 H18         45.9620    15.8230    34.3510 hc         1 19P       0.071950
     52 H19         50.4640    17.3750    31.3550 h1         1 19P       0.056367
     53 H20         50.8180    15.6500    31.1140 h1         1 19P       0.056367
     54 H21         50.3740    16.6700    29.7260 h1         1 19P       0.056367
     55 H22         40.7210    17.5470    32.1080 h1         1 19P       0.072700
     56 H23         39.5420    16.5500    34.3340 ho         1 19P       0.472000
     57 H24         41.3310    19.7420    33.2010 hc         1 19P       0.048700
     58 H25         39.5840    19.6030    32.9570 hc         1 19P       0.048700
     59 H26         40.2780    19.3260    34.5650 hc         1 19P       0.048700
@<TRIPOS>BOND
     1     1     2 ar  
     2     1     6 ar  
     3     1    11 1   
     4     2     3 ar  
     5     2    34 1   
     6     3     4 ar  
     7     3    35 1   
     8     4     5 ar  
     9     4     7 ar  
    10     5     6 ar  
    11     5    10 ar  
    12     7     8 ar  
    13     8     9 ar  
    14     8    36 1   
    15     9    10 ar  
    16     9    18 1   
    17    10    20 1   
    18    11    12 ar  
    19    11    16 ar  
    20    12    13 ar  
    21    12    37 1   
    22    13    14 ar  
    23    14    15 ar  
    24    14    17 1   
    25    15    16 ar  
    26    15    38 1   
    27    16    39 1   
    28    17    40 1   
    29    17    41 1   
    30    17    42 1   
    31    18    19 1   
    32    18    28 1   
    33    19    20 1   
    34    19    27 2   
    35    20    21 1   
    36    21    22 1   
    37    21    26 1   
    38    21    43 1   
    39    22    23 1   
    40    22    44 1   
    41    22    45 1   
    42    23    24 1   
    43    23    46 1   
    44    23    47 1   
    45    24    25 1   
    46    24    29 1   
    47    25    26 1   
    48    25    48 1   
    49    25    49 1   
    50    26    50 1   
    51    26    51 1   
    52    28    52 1   
    53    28    53 1   
    54    28    54 1   
    55    29    30 2   
    56    29    31 1   
    57    31    32 1   
    58    31    33 1   
    59    31    55 1   
    60    32    56 1   
    61    33    57 1   
    62    33    58 1   
    63    33    59 1   
@<TRIPOS>SUBSTRUCTURE
     1 19P         1 TEMP              0 ****  ****    0 ROOT
