@<TRIPOS>MOLECULE
19Q
   41    43     1     0     0
SMALL
No Charge or Current Charge


@<TRIPOS>ATOM
      1 C1           0.0230    -0.6980    -0.5980 cc         1 19Q      -0.321000
      2 C2          -0.1870    -1.9940    -1.0760 cd         1 19Q      -0.112100
      3 N3           1.0600    -2.6670    -1.1340 na         1 19Q      -0.309400
      4 C4           1.4300    -0.5720    -0.3580 ca         1 19Q       0.351800
      5 C5           2.0300    -1.7860    -0.6930 ca         1 19Q       0.303500
      6 N6           3.3640    -1.9910    -0.5760 nb         1 19Q      -0.638000
      7 C7           4.0630    -0.9150    -0.1060 ca         1 19Q       0.304900
      8 C8           3.4370     0.3290     0.2360 ca         1 19Q       0.325300
      9 N9           2.0940     0.5110     0.1100 nb         1 19Q      -0.572000
     10 C10         -1.0060     0.3400    -0.3830 c          1 19Q       0.641300
     11 N11         -2.2790    -0.0770    -0.7030 ns         1 19Q      -0.518900
     12 O12         -0.7790     1.4640     0.0370 o          1 19Q      -0.574100
     13 C13         -3.4940     0.7530    -0.6140 c3         1 19Q       0.086700
     14 C14         -4.2900     0.5900    -1.9310 c3         1 19Q      -0.104100
     15 C15         -4.3220     0.4780     0.7000 c3         1 19Q       0.175000
     16 C16         -3.4630     0.7060     1.9710 c3         1 19Q      -0.101600
     17 C17         -5.5920     1.3620     0.7820 c3         1 19Q      -0.101600
     18 O18         -4.7480    -0.8900     0.7200 oh         1 19Q      -0.663000
     19 C19          4.2150     1.5150     0.7560 cx         1 19Q      -0.180000
     20 C20          5.4080     1.3640     1.6780 cx         1 19Q      -0.121400
     21 C21          5.6070     1.8540     0.2630 cx         1 19Q      -0.121400
     22 H1          -1.1080    -2.4930    -1.3770 h4         1 19Q       0.218000
     23 H2           1.2270    -3.6190    -1.4390 hn         1 19Q       0.368000
     24 H3           5.1380    -1.0510    -0.0020 h4         1 19Q       0.030100
     25 H4          -2.3640    -1.0100    -1.0800 hn         1 19Q       0.303500
     26 H5          -3.1790     1.8050    -0.5750 h1         1 19Q       0.085700
     27 H6          -5.1140     1.3100    -1.9900 hc         1 19Q       0.043700
     28 H7          -3.6390     0.7710    -2.7950 hc         1 19Q       0.043700
     29 H8          -4.7040    -0.4210    -2.0220 hc         1 19Q       0.043700
     30 H9          -3.0820     1.7340     1.9990 hc         1 19Q       0.045200
     31 H10         -4.0550     0.5410     2.8790 hc         1 19Q       0.045200
     32 H11         -2.6060     0.0240     2.0070 hc         1 19Q       0.045200
     33 H12         -6.3050     1.1170    -0.0140 hc         1 19Q       0.045200
     34 H13         -6.1100     1.2150     1.7380 hc         1 19Q       0.045200
     35 H14         -5.3330     2.4240     0.6970 hc         1 19Q       0.045200
     36 H15         -3.9330    -1.4340     0.7410 ho         1 19Q       0.437000
     37 H16          3.5660     2.3650     0.9590 hc         1 19Q       0.108700
     38 H17          5.5200     2.0860     2.4830 hc         1 19Q       0.074200
     39 H18          5.7540     0.3620     1.9210 hc         1 19Q       0.074200
     40 H19          6.0860     1.1800    -0.4440 hc         1 19Q       0.074200
     41 H20          5.8520     2.9040     0.1210 hc         1 19Q       0.074200
@<TRIPOS>BOND
     1     1     2 2   
     2     1     4 1   
     3     1    10 1   
     4     2     3 1   
     5     2    22 1   
     6     3     5 1   
     7     3    23 1   
     8     4     5 ar  
     9     4     9 ar  
    10     5     6 ar  
    11     6     7 ar  
    12     7     8 ar  
    13     7    24 1   
    14     8     9 ar  
    15     8    19 1   
    16    10    11 1   
    17    10    12 2   
    18    11    13 1   
    19    11    25 1   
    20    13    14 1   
    21    13    15 1   
    22    13    26 1   
    23    14    27 1   
    24    14    28 1   
    25    14    29 1   
    26    15    16 1   
    27    15    17 1   
    28    15    18 1   
    29    16    30 1   
    30    16    31 1   
    31    16    32 1   
    32    17    33 1   
    33    17    34 1   
    34    17    35 1   
    35    18    36 1   
    36    19    20 1   
    37    19    21 1   
    38    19    37 1   
    39    20    21 1   
    40    20    38 1   
    41    20    39 1   
    42    21    40 1   
    43    21    41 1   
@<TRIPOS>SUBSTRUCTURE
     1 19Q         1 TEMP              0 ****  ****    0 ROOT
