@<TRIPOS>MOLECULE
19Q
   41    43     1     0     0
SMALL
abcg2


@<TRIPOS>ATOM
      1 C1           0.0050    -0.7150    -0.1510 cc         1 19Q      -0.321000
      2 C2          -0.1630    -2.0550    -0.4150 cd         1 19Q      -0.112100
      3 N3           1.0360    -2.6810    -0.4850 na         1 19Q      -0.309400
      4 C4           1.4180    -0.5160    -0.0450 ca         1 19Q       0.351800
      5 C5           2.0240    -1.7680    -0.2670 ca         1 19Q       0.303500
      6 N6           3.3250    -1.9730    -0.2590 nb         1 19Q      -0.638000
      7 C7           4.0420    -0.8870    -0.0250 ca         1 19Q       0.304900
      8 C8           3.4710     0.3860     0.1910 ca         1 19Q       0.325300
      9 N9           2.1580     0.5670     0.1790 nb         1 19Q      -0.572000
     10 C10         -1.0400     0.3000     0.0520 c          1 19Q       0.641300
     11 N11         -2.2320     0.0280    -0.5220 ns         1 19Q      -0.518900
     12 O12         -0.8230     1.3080     0.7110 o          1 19Q      -0.574100
     13 C13         -3.3900     0.9040    -0.4550 c3         1 19Q       0.086700
     14 C14         -3.8950     1.1650    -1.8690 c3         1 19Q      -0.104100
     15 C15         -4.4640     0.3180     0.4950 c3         1 19Q       0.175000
     16 C16         -3.8970     0.1700     1.9050 c3         1 19Q      -0.101600
     17 C17         -5.6840     1.2300     0.5350 c3         1 19Q      -0.101600
     18 O18         -4.9140    -0.9390     0.0130 oh         1 19Q      -0.663000
     19 C19          4.3070     1.5820     0.4350 cx         1 19Q      -0.180000
     20 C20          5.6090     1.4920     1.1860 cx         1 19Q      -0.121400
     21 C21          5.6210     1.7740    -0.2760 cx         1 19Q      -0.121400
     22 H1          -1.0720    -2.6230    -0.5400 h4         1 19Q       0.218000
     23 H2           1.1700    -3.6680    -0.6400 hn         1 19Q       0.368000
     24 H3           5.1180    -1.0170    -0.0080 h4         1 19Q       0.030100
     25 H4          -2.2670    -0.7160    -1.2010 hn         1 19Q       0.303500
     26 H5          -3.0530     1.8490    -0.0250 h1         1 19Q       0.085700
     27 H6          -4.6820     1.9170    -1.8800 hc         1 19Q       0.043700
     28 H7          -3.0820     1.5360    -2.4930 hc         1 19Q       0.043700
     29 H8          -4.2900     0.2580    -2.3290 hc         1 19Q       0.043700
     30 H9          -3.5440     1.1260     2.2910 hc         1 19Q       0.045200
     31 H10         -4.6670    -0.2040     2.5820 hc         1 19Q       0.045200
     32 H11         -3.0580    -0.5280     1.9380 hc         1 19Q       0.045200
     33 H12         -6.2140     1.2480    -0.4170 hc         1 19Q       0.045200
     34 H13         -6.3880     0.8960     1.2990 hc         1 19Q       0.045200
     35 H14         -5.3910     2.2520     0.7770 hc         1 19Q       0.045200
     36 H15         -4.2190    -1.5890     0.1600 ho         1 19Q       0.437000
     37 H16          3.7190     2.4760     0.6030 hc         1 19Q       0.108700
     38 H17          5.8400     2.2980     1.8700 hc         1 19Q       0.074200
     39 H18          5.9340     0.5160     1.5250 hc         1 19Q       0.074200
     40 H19          5.9510     0.9920    -0.9480 hc         1 19Q       0.074200
     41 H20          5.8620     2.7760    -0.6090 hc         1 19Q       0.074200
@<TRIPOS>BOND
     1     1     2 2   
     2     1     4 1   
     3     1    10 1   
     4     2     3 1   
     5     2    22 1   
     6     3     5 1   
     7     3    23 1   
     8     4     5 ar  
     9     4     9 ar  
    10     5     6 ar  
    11     6     7 ar  
    12     7     8 ar  
    13     7    24 1   
    14     8     9 ar  
    15     8    19 1   
    16    10    11 1   
    17    10    12 2   
    18    11    13 1   
    19    11    25 1   
    20    13    14 1   
    21    13    15 1   
    22    13    26 1   
    23    14    27 1   
    24    14    28 1   
    25    14    29 1   
    26    15    16 1   
    27    15    17 1   
    28    15    18 1   
    29    16    30 1   
    30    16    31 1   
    31    16    32 1   
    32    17    33 1   
    33    17    34 1   
    34    17    35 1   
    35    18    36 1   
    36    19    20 1   
    37    19    21 1   
    38    19    37 1   
    39    20    21 1   
    40    20    38 1   
    41    20    39 1   
    42    21    40 1   
    43    21    41 1   
@<TRIPOS>SUBSTRUCTURE
     1 19Q         1 TEMP              0 ****  ****    0 ROOT
