@<TRIPOS>MOLECULE
19R
   41    43     1     0     0
SMALL
abcg2


@<TRIPOS>ATOM
      1 C1           4.0520    -0.9070    -0.0050 ca         1 19R       0.303900
      2 C2           3.5100     0.3920    -0.1170 ca         1 19R       0.323300
      3 N3           2.2010     0.6010    -0.0950 nb         1 19R      -0.571000
      4 N4           3.3090    -1.9920     0.1240 nb         1 19R      -0.640000
      5 C5           2.0130    -1.7590     0.1380 ca         1 19R       0.301500
      6 C6           1.4340    -0.4780     0.0290 ca         1 19R       0.353800
      7 C7           0.0150    -0.6560     0.1010 cc         1 19R      -0.317000
      8 C8          -0.1810    -2.0130     0.2310 cd         1 19R      -0.110100
      9 N9           1.0040    -2.6670     0.2560 na         1 19R      -0.310400
     10 C10         -1.0020     0.4030     0.0020 c          1 19R       0.642300
     11 O11         -0.7190     1.5070    -0.4470 o          1 19R      -0.584100
     12 C12          4.3710     1.5860    -0.2680 cx         1 19R      -0.179000
     13 N13         -2.2380     0.0720     0.4250 ns         1 19R      -0.509900
     14 C14          5.6840     1.7060     0.4610 cx         1 19R      -0.121900
     15 C15          5.6750     1.5250    -1.0180 cx         1 19R      -0.121900
     16 C16         -3.3860     0.9540     0.3560 c3         1 19R       0.129700
     17 C17         -4.5290     0.2710    -0.4220 c3         1 19R       0.169000
     18 C18         -5.7370     1.1990    -0.5290 c3         1 19R      -0.120100
     19 C19         -4.0590    -0.1040    -1.8270 c3         1 19R      -0.120100
     20 O20         -4.8580    -0.8960     0.3170 oh         1 19R      -0.671000
     21 C21         -3.7730     1.4120     1.7600 c3         1 19R      -0.103100
     22 H1           5.1250    -1.0580    -0.0230 h4         1 19R       0.029100
     23 H2          -1.0990    -2.5760     0.2910 h4         1 19R       0.220000
     24 H3           1.1150    -3.6670     0.3240 hn         1 19R       0.367000
     25 H4           3.7990     2.4990    -0.3750 hc         1 19R       0.108700
     26 H5          -2.3820    -0.8180     0.8760 hn         1 19R       0.315500
     27 H6           5.9390     2.6780     0.8620 hc         1 19R       0.073700
     28 H7           5.9980     0.8740     1.0800 hc         1 19R       0.073700
     29 H8           5.9850     0.5690    -1.4210 hc         1 19R       0.073700
     30 H9           5.9250     2.3720    -1.6440 hc         1 19R       0.073700
     31 H10         -3.0800     1.8270    -0.2220 h1         1 19R       0.084700
     32 H11         -5.4680     2.1420    -1.0070 hc         1 19R       0.043867
     33 H12         -6.5170     0.7360    -1.1370 hc         1 19R       0.043867
     34 H13         -6.1680     1.4250     0.4470 hc         1 19R       0.043867
     35 H14         -3.2340    -0.8160    -1.8020 hc         1 19R       0.043867
     36 H15         -4.8760    -0.5540    -2.3960 hc         1 19R       0.043867
     37 H16         -3.7270     0.7780    -2.3780 hc         1 19R       0.043867
     38 H17         -5.4850    -1.4170    -0.1950 ho         1 19R       0.442000
     39 H18         -4.1240     0.5800     2.3720 hc         1 19R       0.043367
     40 H19         -2.9090     1.8530     2.2540 hc         1 19R       0.043367
     41 H20         -4.5560     2.1680     1.7370 hc         1 19R       0.043367
@<TRIPOS>BOND
     1     1     2 ar  
     2     1     4 ar  
     3     1    22 1   
     4     2     3 ar  
     5     2    12 1   
     6     3     6 ar  
     7     4     5 ar  
     8     5     6 ar  
     9     5     9 1   
    10     6     7 1   
    11     7     8 2   
    12     7    10 1   
    13     8     9 1   
    14     8    23 1   
    15     9    24 1   
    16    10    11 2   
    17    10    13 1   
    18    12    14 1   
    19    12    15 1   
    20    12    25 1   
    21    13    16 1   
    22    13    26 1   
    23    14    15 1   
    24    14    27 1   
    25    14    28 1   
    26    15    29 1   
    27    15    30 1   
    28    16    17 1   
    29    16    21 1   
    30    16    31 1   
    31    17    18 1   
    32    17    19 1   
    33    17    20 1   
    34    18    32 1   
    35    18    33 1   
    36    18    34 1   
    37    19    35 1   
    38    19    36 1   
    39    19    37 1   
    40    20    38 1   
    41    21    39 1   
    42    21    40 1   
    43    21    41 1   
@<TRIPOS>SUBSTRUCTURE
     1 19R         1 TEMP              0 ****  ****    0 ROOT
