@<TRIPOS>MOLECULE
19R
   41    43     1     0     0
SMALL
No Charge or Current Charge


@<TRIPOS>ATOM
      1 C1           4.1270    -0.9570     0.0180 ca         1 19R       0.303900
      2 C2           3.5800     0.3660    -0.0750 ca         1 19R       0.323300
      3 N3           2.2380     0.5900    -0.0190 nb         1 19R      -0.571000
      4 N4           3.3490    -2.0710     0.1680 nb         1 19R      -0.640000
      5 C5           2.0180    -1.8230     0.2210 ca         1 19R       0.301500
      6 C6           1.4960    -0.5320     0.1300 ca         1 19R       0.353800
      7 C7           0.0690    -0.6310     0.2210 cc         1 19R      -0.317000
      8 C8          -0.2310    -1.9880     0.3670 cd         1 19R      -0.110100
      9 N9           0.9810    -2.7250     0.3660 na         1 19R      -0.310400
     10 C10         -0.8990     0.4830     0.1710 c          1 19R       0.642300
     11 O11         -0.6000     1.6600     0.0410 o          1 19R      -0.584100
     12 C12          4.4440     1.5940    -0.2410 cx         1 19R      -0.179000
     13 N13         -2.2050     0.0740     0.2850 ns         1 19R      -0.509900
     14 C14          5.7980     1.7310     0.4270 cx         1 19R      -0.121900
     15 C15          5.7100     1.5900    -1.0740 cx         1 19R      -0.121900
     16 C16         -3.3790     0.9560     0.2570 c3         1 19R       0.129700
     17 C17         -4.5880     0.2600    -0.4770 c3         1 19R       0.169000
     18 C18         -5.8650     1.1360    -0.4710 c3         1 19R      -0.120100
     19 C19         -4.2130    -0.0930    -1.9390 c3         1 19R      -0.120100
     20 O20         -4.9010    -0.9730     0.1850 oh         1 19R      -0.671000
     21 C21         -3.6800     1.4360     1.6990 c3         1 19R      -0.103100
     22 H1           5.2010    -1.1250    -0.0280 h4         1 19R       0.029100
     23 H2          -1.1930    -2.4890     0.4690 h4         1 19R       0.220000
     24 H3           1.0840    -3.7300     0.4550 hn         1 19R       0.367000
     25 H4           3.8480     2.5030    -0.2920 hc         1 19R       0.108700
     26 H5          -2.3710    -0.9170     0.3840 hn         1 19R       0.315500
     27 H6           6.0670     2.7060     0.8290 hc         1 19R       0.073700
     28 H7           6.1850     0.8880     0.9950 hc         1 19R       0.073700
     29 H8           6.0390     0.6520    -1.5150 hc         1 19R       0.073700
     30 H9           5.9210     2.4700    -1.6780 hc         1 19R       0.073700
     31 H10         -3.1190     1.8470    -0.3320 h1         1 19R       0.084700
     32 H11         -5.6570     2.1260    -0.8950 hc         1 19R       0.043867
     33 H12         -6.6620     0.6750    -1.0680 hc         1 19R       0.043867
     34 H13         -6.2540     1.2730     0.5450 hc         1 19R       0.043867
     35 H14         -3.3690    -0.7910    -1.9820 hc         1 19R       0.043867
     36 H15         -5.0570    -0.5600    -2.4610 hc         1 19R       0.043867
     37 H16         -3.9330     0.8110    -2.4940 hc         1 19R       0.043867
     38 H17         -5.6820    -1.3520    -0.2710 ho         1 19R       0.442000
     39 H18         -4.0100     0.6020     2.3300 hc         1 19R       0.043367
     40 H19         -2.7820     1.8710     2.1530 hc         1 19R       0.043367
     41 H20         -4.4570     2.2080     1.7060 hc         1 19R       0.043367
@<TRIPOS>BOND
     1     1     2 ar  
     2     1     4 ar  
     3     1    22 1   
     4     2     3 ar  
     5     2    12 1   
     6     3     6 ar  
     7     4     5 ar  
     8     5     6 ar  
     9     5     9 1   
    10     6     7 1   
    11     7     8 2   
    12     7    10 1   
    13     8     9 1   
    14     8    23 1   
    15     9    24 1   
    16    10    11 2   
    17    10    13 1   
    18    12    14 1   
    19    12    15 1   
    20    12    25 1   
    21    13    16 1   
    22    13    26 1   
    23    14    15 1   
    24    14    27 1   
    25    14    28 1   
    26    15    29 1   
    27    15    30 1   
    28    16    17 1   
    29    16    21 1   
    30    16    31 1   
    31    17    18 1   
    32    17    19 1   
    33    17    20 1   
    34    18    32 1   
    35    18    33 1   
    36    18    34 1   
    37    19    35 1   
    38    19    36 1   
    39    19    37 1   
    40    20    38 1   
    41    21    39 1   
    42    21    40 1   
    43    21    41 1   
@<TRIPOS>SUBSTRUCTURE
     1 19R         1 TEMP              0 ****  ****    0 ROOT
