@<TRIPOS>MOLECULE
19S
   48    51     1     0     0
SMALL
bcc


@<TRIPOS>ATOM
      1 N1           4.5670    -0.0420     0.2360 n          1 19S      -0.466800
      2 C2           5.7740     0.6270    -0.2340 c6         1 19S       0.095000
      3 C3           6.2990    -0.0350    -1.5010 c6         1 19S      -0.097900
      4 C4           6.5390    -1.5220    -1.2670 c6         1 19S      -0.074400
      5 C5           5.2830    -2.1850    -0.7160 c6         1 19S      -0.097900
      6 C6           4.7690    -1.4550     0.5200 c6         1 19S       0.095000
      7 N7          -4.7190     1.6390    -0.7750 nb         1 19S      -0.640000
      8 C8          -4.6490    -0.6640    -0.0940 ca         1 19S       0.323300
      9 C9          -5.3290     0.4920    -0.5320 ca         1 19S       0.303900
     10 N10         -3.3370    -0.6660     0.1030 nb         1 19S      -0.571000
     11 C11         -2.7030     0.4790    -0.1380 ca         1 19S       0.354800
     12 C12         -3.4180     1.6120    -0.5750 ca         1 19S       0.300500
     13 N13         -2.5300     2.6320    -0.7420 na         1 19S      -0.259100
     14 C14         -1.2910     2.1900    -0.4300 cc         1 19S      -0.052100
     15 C15         -1.3270     0.8670    -0.0460 cd         1 19S      -0.319000
     16 N17          1.0050     0.5950     0.4340 ns         1 19S      -0.575900
     17 O18         -0.3800    -1.1720     0.6420 o          1 19S      -0.587100
     18 C19          2.1850    -0.1080     0.8710 c3         1 19S       0.042700
     19 C20         -5.3590    -1.9360     0.1650 cx         1 19S      -0.179000
     20 C21         -6.7470    -1.9580     0.7500 cx         1 19S      -0.121900
     21 C22         -6.5380    -2.3600    -0.6690 cx         1 19S      -0.121900
     22 C23          3.3990     0.6190     0.2880 c          1 19S       0.666100
     23 C24          2.2920    -0.1370     2.4000 c3         1 19S      -0.111100
     24 O25          3.2830     1.7930    -0.0500 o          1 19S      -0.628100
     25 H1           5.5660     1.6800    -0.3950 h1         1 19S       0.056200
     26 H2           6.5290     0.5560     0.5560 h1         1 19S       0.056200
     27 H3           5.5740     0.1060    -2.3090 hc         1 19S       0.051450
     28 H4           7.2210     0.4640    -1.8070 hc         1 19S       0.051450
     29 H5           6.8540    -2.0120    -2.1910 hc         1 19S       0.043200
     30 H6           7.3580    -1.6450    -0.5500 hc         1 19S       0.043200
     31 H7           4.4970    -2.1890    -1.4780 hc         1 19S       0.051450
     32 H8           5.4780    -3.2260    -0.4520 hc         1 19S       0.051450
     33 H9           5.4980    -1.5410     1.3330 h1         1 19S       0.056200
     34 H10          3.8540    -1.9200     0.8720 h1         1 19S       0.056200
     35 H12         -2.7540     3.5640    -1.0530 hn         1 19S       0.317700
     36 H13         -0.4530     2.8660    -0.5080 h4         1 19S       0.174000
     37 H14          1.1220     1.5790     0.2490 hn         1 19S       0.331500
     38 H15          2.1210    -1.1290     0.4940 h1         1 19S       0.086700
     39 H16         -4.6940    -2.7270     0.4880 hc         1 19S       0.107700
     40 H17         -6.9600    -2.7280     1.4800 hc         1 19S       0.073700
     41 H18         -7.2280    -1.0090     0.9510 hc         1 19S       0.073700
     42 H19         -6.8760    -1.6880    -1.4480 hc         1 19S       0.073700
     43 H20         -6.6100    -3.4090    -0.9270 hc         1 19S       0.073700
     44 H21          1.4120    -0.6170     2.8250 hc         1 19S       0.049367
     45 H22          3.1700    -0.6890     2.7360 hc         1 19S       0.049367
     46 H23          2.3590     0.8770     2.7960 hc         1 19S       0.049367
     47 C16         -0.2070     0.0100     0.3720 c          1 19S       0.713300
     48 H11         -6.4010     0.4760    -0.6880 h4         1 19S       0.029100
@<TRIPOS>BOND
     1     1     2 1   
     2     1     6 1   
     3     1    22 1   
     4     2     3 1   
     5     2    25 1   
     6     2    26 1   
     7     3     4 1   
     8     3    27 1   
     9     3    28 1   
    10     4     5 1   
    11     4    29 1   
    12     4    30 1   
    13     5     6 1   
    14     5    31 1   
    15     5    32 1   
    16     6    33 1   
    17     6    34 1   
    18     7     9 ar  
    19     7    12 ar  
    20     8     9 ar  
    21     8    10 ar  
    22     8    19 1   
    23     9    48 1   
    24    10    11 ar  
    25    11    12 ar  
    26    11    15 1   
    27    12    13 1   
    28    13    14 1   
    29    13    35 1   
    30    14    15 2   
    31    14    36 1   
    32    15    47 1   
    33    16    18 1   
    34    16    37 1   
    35    16    47 1   
    36    17    47 2   
    37    18    22 1   
    38    18    23 1   
    39    18    38 1   
    40    19    20 1   
    41    19    21 1   
    42    19    39 1   
    43    20    21 1   
    44    20    40 1   
    45    20    41 1   
    46    21    42 1   
    47    21    43 1   
    48    22    24 2   
    49    23    44 1   
    50    23    45 1   
    51    23    46 1   
@<TRIPOS>SUBSTRUCTURE
     1 19S         1 TEMP              0 ****  ****    0 ROOT
