@<TRIPOS>MOLECULE
19S
   48    51     1     0     0
SMALL
No Charge or Current Charge


@<TRIPOS>ATOM
      1 N1           4.6820    -0.0190     0.3190 n          1 19S      -0.399800
      2 C2           5.9090     0.6920    -0.1310 c6         1 19S       0.095000
      3 C3           6.4660     0.0670    -1.4320 c6         1 19S      -0.097900
      4 C4           6.7190    -1.4500    -1.2510 c6         1 19S      -0.074400
      5 C5           5.4470    -2.1590    -0.7250 c6         1 19S      -0.097900
      6 C6           4.9170    -1.4710     0.5560 c6         1 19S       0.095000
      7 N7          -4.8010     1.7260    -0.8380 nb         1 19S      -0.640000
      8 C8          -4.7740    -0.6160    -0.0730 ca         1 19S       0.323300
      9 C9          -5.4510     0.5560    -0.5520 ca         1 19S       0.303900
     10 N10         -3.4260    -0.6340     0.1290 nb         1 19S      -0.571000
     11 C11         -2.8180     0.5380    -0.1640 ca         1 19S       0.354800
     12 C12         -3.4640     1.6810    -0.6290 ca         1 19S       0.300500
     13 N13         -2.5040     2.6600    -0.8070 na         1 19S      -0.309400
     14 C14         -1.2140     2.1930    -0.4670 cc         1 19S      -0.102100
     15 C15         -1.4160     0.8700    -0.0670 cd         1 19S      -0.319000
     16 N17          0.9000     0.5050     0.3840 ns         1 19S      -0.508900
     17 O18         -0.5400    -1.2150     0.7370 o          1 19S      -0.587100
     18 C19          2.1500    -0.1740     0.7930 c3         1 19S       0.042700
     19 C20         -5.5000    -1.9040     0.2390 cx         1 19S      -0.179000
     20 C21         -6.8880    -1.9260     0.8460 cx         1 19S      -0.121900
     21 C22         -6.6820    -2.3880    -0.5760 cx         1 19S      -0.121900
     22 C23          3.3930     0.5610     0.1870 c          1 19S       0.599100
     23 C24          2.2290    -0.2780     2.3370 c3         1 19S      -0.111100
     24 O25          3.2640     1.6590    -0.3500 o          1 19S      -0.628100
     25 H1           5.7120     1.7620    -0.2890 h1         1 19S       0.056200
     26 H2           6.6700     0.6230     0.6600 h1         1 19S       0.056200
     27 H3           5.7510     0.2290    -2.2510 hc         1 19S       0.051450
     28 H4           7.3970     0.5730    -1.7220 hc         1 19S       0.051450
     29 H5           7.0330    -1.8960    -2.2050 hc         1 19S       0.043200
     30 H6           7.5470    -1.6040    -0.5450 hc         1 19S       0.043200
     31 H7           4.6670    -2.1430    -1.4990 hc         1 19S       0.051450
     32 H8           5.6640    -3.2160    -0.5200 hc         1 19S       0.051450
     33 H9           5.6600    -1.5820     1.3600 h1         1 19S       0.056200
     34 H10          4.0100    -1.9890     0.8910 h1         1 19S       0.056200
     35 H12         -2.7200     3.5930    -1.1410 hn         1 19S       0.368000
     36 H13         -0.3240     2.8160    -0.5390 h4         1 19S       0.224000
     37 H14          0.9700     1.4570     0.0510 hn         1 19S       0.331500
     38 H15          2.1340    -1.1840     0.3660 h1         1 19S       0.086700
     39 H16         -4.8180    -2.6770     0.5890 hc         1 19S       0.107700
     40 H17         -7.0990    -2.6830     1.5990 hc         1 19S       0.073700
     41 H18         -7.4030    -0.9810     1.0030 hc         1 19S       0.073700
     42 H19         -7.0570    -1.7530    -1.3760 hc         1 19S       0.073700
     43 H20         -6.7540    -3.4550    -0.7780 hc         1 19S       0.073700
     44 H21          1.3760    -0.8400     2.7350 hc         1 19S       0.049367
     45 H22          3.1440    -0.7870     2.6610 hc         1 19S       0.049367
     46 H23          2.2210     0.7210     2.7900 hc         1 19S       0.049367
     47 C16         -0.3530    -0.0590     0.3900 c          1 19S       0.646300
     48 H11         -6.5280     0.5570    -0.7090 h4         1 19S       0.029100
@<TRIPOS>BOND
     1     1     2 1   
     2     1     6 1   
     3     1    22 1   
     4     2     3 1   
     5     2    25 1   
     6     2    26 1   
     7     3     4 1   
     8     3    27 1   
     9     3    28 1   
    10     4     5 1   
    11     4    29 1   
    12     4    30 1   
    13     5     6 1   
    14     5    31 1   
    15     5    32 1   
    16     6    33 1   
    17     6    34 1   
    18     7     9 ar  
    19     7    12 ar  
    20     8     9 ar  
    21     8    10 ar  
    22     8    19 1   
    23     9    48 1   
    24    10    11 ar  
    25    11    12 ar  
    26    11    15 1   
    27    12    13 1   
    28    13    14 1   
    29    13    35 1   
    30    14    15 2   
    31    14    36 1   
    32    15    47 1   
    33    16    18 1   
    34    16    37 1   
    35    16    47 1   
    36    17    47 2   
    37    18    22 1   
    38    18    23 1   
    39    18    38 1   
    40    19    20 1   
    41    19    21 1   
    42    19    39 1   
    43    20    21 1   
    44    20    40 1   
    45    20    41 1   
    46    21    42 1   
    47    21    43 1   
    48    22    24 2   
    49    23    44 1   
    50    23    45 1   
    51    23    46 1   
@<TRIPOS>SUBSTRUCTURE
     1 19S         1 TEMP              0 ****  ****    0 ROOT
