@<TRIPOS>MOLECULE
19T
   43    45     1     0     0
SMALL
abcg2


@<TRIPOS>ATOM
      1 C2           2.5150     0.4880     0.2260 ca         1 19T       0.254500
      2 C4           3.1450     2.6550     0.3860 ca         1 19T       0.154300
      3 C5           1.8230     3.0700     0.3260 ca         1 19T      -0.264300
      4 C9           2.7550    -3.3700     0.0490 cc         1 19T      -0.056000
      5 O26         -7.1650    -1.5060     0.1490 o          1 19T      -0.724500
      6 C24         -6.1150    -0.8690     0.3660 c          1 19T       0.725000
      7 O25         -5.8490    -0.1820     1.3670 o          1 19T      -0.724500
      8 C20         -3.8300    -0.1230    -0.5260 ca         1 19T       0.011700
      9 C19         -3.7290     1.1520    -1.0740 ca         1 19T      -0.098000
     10 C18         -2.6060     1.9390    -0.8710 ca         1 19T      -0.127000
     11 C21         -2.7630    -0.5700     0.2490 ca         1 19T      -0.098000
     12 C22         -1.6360     0.2060     0.4730 ca         1 19T      -0.127000
     13 C17         -1.5430     1.4750    -0.0980 ca         1 19T       0.235000
     14 C6           0.8630     2.0390     0.1900 ca         1 19T       0.407900
     15 C14          1.4330     4.5200     0.3430 c3         1 19T      -0.015100
     16 C15          1.2270     5.0940    -1.0610 c3         1 19T      -0.092100
     17 C13          4.2700     3.6380     0.5070 c3         1 19T      -0.147400
     18 N3           3.4960     1.3620     0.3430 nb         1 19T      -0.229000
     19 N7           1.2220     0.7620     0.1420 nb         1 19T      -0.259000
     20 C7           2.8640    -0.9270     0.1800 cc         1 19T      -0.283500
     21 C11          4.0920    -1.5170     0.2580 cd         1 19T      -0.092000
     22 C10          4.0360    -2.9300     0.1830 cd         1 19T      -0.144000
     23 S8           1.6040    -2.0950     0.0120 ss         1 19T       0.361000
     24 H2          -4.7490    -2.0240    -0.8300 hc         1 19T       0.033700
     25 H3          -5.5080    -0.7190    -1.7030 hc         1 19T       0.033700
     26 H4          -4.5360     1.5400    -1.6840 ha         1 19T       0.111500
     27 H5          -2.5510     2.9220    -1.3260 ha         1 19T       0.101500
     28 H6          -2.8080    -1.5560     0.6970 ha         1 19T       0.111500
     29 H7          -0.8380    -0.1800     1.0870 ha         1 19T       0.101500
     30 H8          -0.6830     3.3200     0.0130 hn         1 19T       0.493000
     31 H9           0.5270     4.6630     0.9400 hc         1 19T       0.043700
     32 H10          2.1980     5.1010     0.8570 hc         1 19T       0.043700
     33 H11          2.1420     5.0250    -1.6490 hc         1 19T       0.033700
     34 H12          0.4480     4.5640    -1.6110 hc         1 19T       0.033700
     35 H13          0.9380     6.1440    -1.0090 hc         1 19T       0.033700
     36 H14          4.2340     4.1620     1.4640 hc         1 19T       0.049033
     37 H15          5.2260     3.1250     0.4380 hc         1 19T       0.049033
     38 H16          4.2270     4.3980    -0.2740 hc         1 19T       0.049033
     39 H17          5.0080    -0.9550     0.3690 ha         1 19T       0.145000
     40 H18          4.8960    -3.5820     0.2270 ha         1 19T       0.136000
     41 N16         -0.4570     2.3420     0.0990 nu         1 19T      -0.922900
     42 CL1          2.2420    -4.9930    -0.0760 cl         1 19T      -0.156000
     43 C23         -5.0400    -0.9720    -0.7470 c3         1 19T      -0.193100
@<TRIPOS>BOND
     1     1    18 ar  
     2     1    19 ar  
     3     1    20 1   
     4     2     3 ar  
     5     2    17 1   
     6     2    18 ar  
     7     3    14 ar  
     8     3    15 1   
     9     4    22 2   
    10     4    23 1   
    11     4    42 1   
    12     5     6 1   
    13     6     7 1   
    14     6    43 1   
    15     8     9 ar  
    16     8    11 ar  
    17     8    43 1   
    18     9    10 ar  
    19     9    26 1   
    20    10    13 ar  
    21    10    27 1   
    22    11    12 ar  
    23    11    28 1   
    24    12    13 ar  
    25    12    29 1   
    26    13    41 1   
    27    14    19 ar  
    28    14    41 1   
    29    15    16 1   
    30    15    31 1   
    31    15    32 1   
    32    16    33 1   
    33    16    34 1   
    34    16    35 1   
    35    17    36 1   
    36    17    37 1   
    37    17    38 1   
    38    20    21 2   
    39    20    23 1   
    40    21    22 1   
    41    21    39 1   
    42    22    40 1   
    43    24    43 1   
    44    25    43 1   
    45    30    41 1   
@<TRIPOS>SUBSTRUCTURE
     1 19T         1 TEMP              0 ****  ****    0 ROOT
