@<TRIPOS>MOLECULE
19T
   43    45     1     0     0
SMALL
No Charge or Current Charge


@<TRIPOS>ATOM
      1 C2           2.5740     0.4110     0.1910 ca         1 19T       0.254500
      2 C4           3.1250     2.6400     0.4220 ca         1 19T       0.154300
      3 C5           1.7680     3.0010     0.2460 ca         1 19T      -0.264300
      4 C9           3.2510    -3.4720     0.0290 cc         1 19T      -0.056000
      5 O26         -7.0140     0.3670     0.3440 o          1 19T      -0.724500
      6 C24         -6.2590    -0.5740     0.5390 c          1 19T       0.725000
      7 O25         -6.1510    -1.1410     1.6160 o          1 19T      -0.724500
      8 C20         -4.0140    -0.1410    -0.4710 ca         1 19T       0.011700
      9 C19         -3.9080     1.1010    -1.1250 ca         1 19T      -0.098000
     10 C18         -2.7300     1.8620    -1.0200 ca         1 19T      -0.127000
     11 C21         -2.9290    -0.6060     0.2950 ca         1 19T      -0.098000
     12 C22         -1.7510     0.1550     0.3980 ca         1 19T      -0.127000
     13 C17         -1.6370     1.3900    -0.2710 ca         1 19T       0.235000
     14 C6           0.8620     1.9390     0.0430 ca         1 19T       0.407900
     15 C14          1.3120     4.4680     0.2710 c3         1 19T      -0.015100
     16 C15          1.2590     5.0860    -1.1390 c3         1 19T      -0.092100
     17 C13          4.2330     3.6610     0.6460 c3         1 19T      -0.147400
     18 N3           3.5180     1.3520     0.3970 nb         1 19T      -0.229000
     19 N7           1.2650     0.6600     0.0060 nb         1 19T      -0.259000
     20 C7           2.9820    -0.9960     0.1560 cc         1 19T      -0.283500
     21 C11          4.2890    -1.4020     0.3220 cd         1 19T      -0.092000
     22 C10          4.4360    -2.8160     0.2490 cd         1 19T      -0.144000
     23 S8           1.8890    -2.3590    -0.0970 ss         1 19T       0.361000
     24 H2          -5.0030    -2.0210    -0.4830 hc         1 19T       0.033700
     25 H3          -5.7350    -0.7410    -1.5620 hc         1 19T       0.033700
     26 H4          -4.7400     1.4790    -1.7140 ha         1 19T       0.111500
     27 H5          -2.6660     2.8180    -1.5320 ha         1 19T       0.101500
     28 H6          -3.0000    -1.5570     0.8190 ha         1 19T       0.111500
     29 H7          -0.9410    -0.2170     1.0170 ha         1 19T       0.101500
     30 H8          -0.6570     3.1640    -0.4220 hn         1 19T       0.493000
     31 H9           0.3240     4.5610     0.7380 hc         1 19T       0.043700
     32 H10          1.9730     5.0770     0.8970 hc         1 19T       0.043700
     33 H11          2.2480     5.0580    -1.6110 hc         1 19T       0.033700
     34 H12          0.5570     4.5390    -1.7800 hc         1 19T       0.033700
     35 H13          0.9330     6.1310    -1.0870 hc         1 19T       0.033700
     36 H14          4.1150     4.1600     1.6150 hc         1 19T       0.049033
     37 H15          5.2260     3.1960     0.6360 hc         1 19T       0.049033
     38 H16          4.2260     4.4300    -0.1350 hc         1 19T       0.049033
     39 H17          5.1270    -0.7300     0.4910 ha         1 19T       0.145000
     40 H18          5.3880    -3.3250     0.3550 ha         1 19T       0.136000
     41 N16         -0.4900     2.1890    -0.1880 nu         1 19T      -0.922900
     42 Cl1          3.0630    -5.1930    -0.1140 cl         1 19T      -0.156000
     43 C23         -5.2910    -0.9680    -0.5850 c3         1 19T      -0.193100
@<TRIPOS>BOND
     1     1    18 ar  
     2     1    19 ar  
     3     1    20 1   
     4     2     3 ar  
     5     2    17 1   
     6     2    18 ar  
     7     3    14 ar  
     8     3    15 1   
     9     4    22 2   
    10     4    23 1   
    11     4    42 1   
    12     5     6 1   
    13     6     7 1   
    14     6    43 1   
    15     8     9 ar  
    16     8    11 ar  
    17     8    43 1   
    18     9    10 ar  
    19     9    26 1   
    20    10    13 ar  
    21    10    27 1   
    22    11    12 ar  
    23    11    28 1   
    24    12    13 ar  
    25    12    29 1   
    26    13    41 1   
    27    14    19 ar  
    28    14    41 1   
    29    15    16 1   
    30    15    31 1   
    31    15    32 1   
    32    16    33 1   
    33    16    34 1   
    34    16    35 1   
    35    17    36 1   
    36    17    37 1   
    37    17    38 1   
    38    20    21 2   
    39    20    23 1   
    40    21    22 1   
    41    21    39 1   
    42    22    40 1   
    43    24    43 1   
    44    25    43 1   
    45    30    41 1   
@<TRIPOS>SUBSTRUCTURE
     1 19T         1 TEMP              0 ****  ****    0 ROOT
