@<TRIPOS>MOLECULE
19U
   44    45     1     0     0
SMALL
No Charge or Current Charge


@<TRIPOS>ATOM
      1 N           -5.5060     1.6860    -1.1210 n8         1 19U      -0.978200
      2 C15         -4.9760     0.4890    -0.3820 c3         1 19U       0.094500
      3 C14         -3.4250     0.5040    -0.0670 c          1 19U       0.621100
      4 O32         -2.8390     1.5570     0.1720 o          1 19U      -0.603100
      5 C1          -5.8030     0.2670     0.9120 c3         1 19U      -0.118400
      6 C17         -7.2780    -0.1230     0.6690 c3         1 19U      -0.093100
      7 N1          -2.7120    -0.7200    -0.0670 n          1 19U      -0.401800
      8 C12         -1.2350    -0.7910     0.1420 c5         1 19U       0.032700
      9 C7          -0.3690     0.0570    -0.8480 c          1 19U       0.602100
     10 O22         -0.6900     0.4810    -1.9520 o          1 19U      -0.588100
     11 C2          -0.9550    -2.3000    -0.1390 c5         1 19U      -0.087400
     12 C3          -2.2520    -2.9750     0.3660 c5         1 19U      -0.094400
     13 C4          -3.3400    -2.0500    -0.2310 c5         1 19U       0.108000
     14 N23          0.8730     0.2760    -0.2940 ns         1 19U      -0.502900
     15 C24          1.9390     1.0280    -0.9470 c3         1 19U       0.150300
     16 C25          3.2110     1.0020    -0.1150 ca         1 19U      -0.104300
     17 C26          3.4750     2.0300     0.8130 ca         1 19U      -0.095000
     18 C27          4.6490     2.0020     1.5870 ca         1 19U      -0.104000
     19 C28          5.5640     0.9450     1.4390 ca         1 19U      -0.097000
     20 C29          5.3020    -0.0820     0.5170 ca         1 19U       0.115000
     21 C30          4.1300    -0.0560    -0.2570 ca         1 19U      -0.091000
     22 Cl21         6.4450    -1.4070     0.3330 cl         1 19U      -0.204000
     23 HN          -6.5320     1.6600    -1.1120 hn         1 19U       0.404500
     24 HNA         -5.2780     2.5330    -0.5850 hn         1 19U       0.404500
     25 H15         -5.1490    -0.3770    -1.0360 h1         1 19U       0.068700
     26 H1          -5.3350    -0.5280     1.5060 hc         1 19U       0.050700
     27 H1A         -5.7620     1.1710     1.5340 hc         1 19U       0.050700
     28 H17         -7.3440    -1.0300     0.0560 hc         1 19U       0.034700
     29 H17A        -7.7800    -0.3210     1.6230 hc         1 19U       0.034700
     30 H17B        -7.8250     0.6810     0.1610 hc         1 19U       0.034700
     31 H12         -0.9860    -0.5190     1.1760 h1         1 19U       0.065700
     32 H2          -0.8130    -2.4920    -1.2110 hc         1 19U       0.062200
     33 H2A         -0.0580    -2.6640     0.3760 hc         1 19U       0.062200
     34 H3          -2.3520    -4.0120     0.0280 hc         1 19U       0.055700
     35 H3A         -2.2950    -2.9800     1.4620 hc         1 19U       0.055700
     36 H4          -4.2890    -2.1500     0.3090 h1         1 19U       0.052200
     37 H4A         -3.5150    -2.2660    -1.2930 h1         1 19U       0.052200
     38 HN23         1.0520    -0.1150     0.6230 hn         1 19U       0.316500
     39 H24          2.1330     0.5910    -1.9360 h1         1 19U       0.063700
     40 H24A         1.6080     2.0650    -1.0950 h1         1 19U       0.063700
     41 H26          2.7700     2.8500     0.9350 ha         1 19U       0.122000
     42 H27          4.8480     2.7980     2.3010 ha         1 19U       0.120000
     43 H28          6.4720     0.9210     2.0360 ha         1 19U       0.130000
     44 H30          3.9370    -0.8580    -0.9650 ha         1 19U       0.133000
@<TRIPOS>BOND
     1     1     2 1   
     2     1    23 1   
     3     1    24 1   
     4     2     3 1   
     5     2     5 1   
     6     2    25 1   
     7     3     4 2   
     8     3     7 1   
     9     5     6 1   
    10     5    26 1   
    11     5    27 1   
    12     6    28 1   
    13     6    29 1   
    14     6    30 1   
    15     7     8 1   
    16     7    13 1   
    17     8     9 1   
    18     8    11 1   
    19     8    31 1   
    20     9    10 2   
    21     9    14 1   
    22    11    12 1   
    23    11    32 1   
    24    11    33 1   
    25    12    13 1   
    26    12    34 1   
    27    12    35 1   
    28    13    36 1   
    29    13    37 1   
    30    14    15 1   
    31    14    38 1   
    32    15    16 1   
    33    15    39 1   
    34    15    40 1   
    35    16    17 ar  
    36    16    21 ar  
    37    17    18 ar  
    38    17    41 1   
    39    18    19 ar  
    40    18    42 1   
    41    19    20 ar  
    42    19    43 1   
    43    20    21 ar  
    44    20    22 1   
    45    21    44 1   
@<TRIPOS>SUBSTRUCTURE
     1 19U         1 TEMP              0 ****  ****    0 ROOT
