@<TRIPOS>MOLECULE
19U
   44    45     1     0     0
SMALL
bcc


@<TRIPOS>ATOM
      1 N           -5.0490     1.6690    -1.0220 n8         1 19U      -0.867800
      2 C15         -4.7820     0.4010    -0.3680 c3         1 19U       0.094500
      3 C14         -3.3040     0.3540    -0.0060 c          1 19U       0.688100
      4 O32         -2.7120     1.3650     0.3530 o          1 19U      -0.603100
      5 C1          -5.6050     0.1300     0.9030 c3         1 19U      -0.118400
      6 C17         -7.1020     0.0660     0.6380 c3         1 19U      -0.093100
      7 N1          -2.6840    -0.8360    -0.0430 n          1 19U      -0.468800
      8 C12         -1.2740    -0.9270     0.2840 c5         1 19U       0.032700
      9 C7          -0.4340    -0.0410    -0.6250 c          1 19U       0.669100
     10 O22         -0.7110     0.1200    -1.8030 o          1 19U      -0.588100
     11 C2          -0.9370    -2.4090     0.0470 c5         1 19U      -0.087400
     12 C3          -2.2810    -3.1120     0.1960 c5         1 19U      -0.094400
     13 C4          -3.2510    -2.1230    -0.4310 c5         1 19U       0.108000
     14 N23          0.6700     0.4540    -0.0500 ns         1 19U      -0.569900
     15 C24          1.6570     1.2300    -0.7730 c3         1 19U       0.150300
     16 C25          2.9900     1.1490    -0.0800 ca         1 19U      -0.104300
     17 C26          3.4930     2.2250     0.6400 ca         1 19U      -0.113000
     18 C27          4.7180     2.1260     1.2870 ca         1 19U      -0.122000
     19 C28          5.4550     0.9540     1.2250 ca         1 19U      -0.115000
     20 C29          4.9430    -0.1160     0.5050 ca         1 19U       0.023400
     21 C30          3.7240    -0.0340    -0.1440 ca         1 19U      -0.109000
     22 CL21         5.8530    -1.5900     0.4100 cl         1 19U      -0.112400
     23 HN          -6.0140     1.6930    -1.3250 hn         1 19U       0.349300
     24 HNA         -4.9370     2.4270    -0.3600 hn         1 19U       0.349300
     25 H15         -5.0070    -0.3840    -1.0960 h1         1 19U       0.068700
     26 H1          -5.2840    -0.8120     1.3570 hc         1 19U       0.050700
     27 H1A         -5.3880     0.9130     1.6360 hc         1 19U       0.050700
     28 H17         -7.3380    -0.6860    -0.1170 hc         1 19U       0.034700
     29 H17A        -7.6450    -0.1950     1.5460 hc         1 19U       0.034700
     30 H17B        -7.4990     1.0210     0.2920 hc         1 19U       0.034700
     31 H12         -1.1110    -0.6600     1.3340 h1         1 19U       0.065700
     32 H2          -0.5580    -2.5560    -0.9670 hc         1 19U       0.062200
     33 H2A         -0.1780    -2.7660     0.7410 hc         1 19U       0.062200
     34 H3          -2.3070    -4.0850    -0.2940 hc         1 19U       0.055700
     35 H3A         -2.5260    -3.2560     1.2500 hc         1 19U       0.055700
     36 H4          -4.2640    -2.2510    -0.0540 h1         1 19U       0.052200
     37 H4A         -3.2750    -2.2280    -1.5190 h1         1 19U       0.052200
     38 HN23         0.7990     0.3350     0.9420 hn         1 19U       0.316500
     39 H24          1.7410     0.8290    -1.7840 h1         1 19U       0.063700
     40 H24A         1.3440     2.2730    -0.8660 h1         1 19U       0.063700
     41 H26          2.9270     3.1470     0.6930 ha         1 19U       0.140000
     42 H27          5.1050     2.9680     1.8460 ha         1 19U       0.138000
     43 H28          6.4090     0.8740     1.7270 ha         1 19U       0.148000
     44 H30          3.3430    -0.8810    -0.7020 ha         1 19U       0.151000
@<TRIPOS>BOND
     1     1     2 1   
     2     1    23 1   
     3     1    24 1   
     4     2     3 1   
     5     2     5 1   
     6     2    25 1   
     7     3     4 2   
     8     3     7 1   
     9     5     6 1   
    10     5    26 1   
    11     5    27 1   
    12     6    28 1   
    13     6    29 1   
    14     6    30 1   
    15     7     8 1   
    16     7    13 1   
    17     8     9 1   
    18     8    11 1   
    19     8    31 1   
    20     9    10 2   
    21     9    14 1   
    22    11    12 1   
    23    11    32 1   
    24    11    33 1   
    25    12    13 1   
    26    12    34 1   
    27    12    35 1   
    28    13    36 1   
    29    13    37 1   
    30    14    15 1   
    31    14    38 1   
    32    15    16 1   
    33    15    39 1   
    34    15    40 1   
    35    16    17 ar  
    36    16    21 ar  
    37    17    18 ar  
    38    17    41 1   
    39    18    19 ar  
    40    18    42 1   
    41    19    20 ar  
    42    19    43 1   
    43    20    21 ar  
    44    20    22 1   
    45    21    44 1   
@<TRIPOS>SUBSTRUCTURE
     1 19U         1 TEMP              0 ****  ****    0 ROOT
