@<TRIPOS>MOLECULE
19V
   87    93     1     0     0
SMALL
abcg2


@<TRIPOS>ATOM
      1 C1           5.1880     0.3350     0.4960 c6         1 19V       0.133700
      2 C2           5.7400     1.7320     0.8030 c6         1 19V      -0.078200
      3 C3           6.9580     1.5840     1.7180 c6         1 19V      -0.056400
      4 C4           8.0550     0.7650     1.0280 c6         1 19V      -0.130000
      5 C5           7.4810    -0.6190     0.6730 c6         1 19V      -0.056400
      6 C6           6.2670    -0.4680    -0.2460 c6         1 19V      -0.078200
      7 C8           6.6810     0.2500    -1.5310 c6         1 19V      -0.071400
      8 C9           8.4600     1.4770    -0.2780 c6         1 19V      -0.061400
      9 C10          7.2420     1.6310    -1.1900 c6         1 19V      -0.061700
     10 C11          9.2640     0.6210     1.9500 c          1 19V       0.611100
     11 C15          1.6790    -2.4330    -2.2000 ca         1 19V      -0.074000
     12 C16          1.1050    -1.3900    -1.4770 ca         1 19V      -0.086000
     13 C18         -0.0230     0.6370     0.0820 c6         1 19V       0.213800
     14 C20         -2.2640    -0.1390    -0.5100 ca         1 19V       0.560900
     15 C21         -3.0820    -0.2320    -1.6390 ca         1 19V      -0.148000
     16 C24         -4.0670     0.4020     0.7960 ca         1 19V       0.299900
     17 C25         -6.8160     0.9020     1.2240 c6         1 19V       0.195300
     18 C26         -8.2460     1.4080     1.1670 c6         1 19V       0.167300
     19 C28         -7.2610    -0.3620    -0.7800 c6         1 19V       0.195300
     20 C31        -11.0140     2.0280     0.2050 c3         1 19V      -0.097433
     21 C32        -11.3730    -0.4370     0.0750 c3         1 19V      -0.097433
     22 N7          -9.1240     0.4130     0.5840 n3         1 19V      -0.734600
     23 C30        -10.8960     0.6050     2.2580 c3         1 19V      -0.097433
     24 C27         -8.6800     0.1760    -0.7740 c6         1 19V       0.167300
     25 N6          -6.3450     0.5410    -0.0980 nh         1 19V      -0.777400
     26 C23         -4.9850     0.3000    -0.2530 ca         1 19V       0.231000
     27 C22         -4.4350    -0.0240    -1.5040 ca         1 19V      -0.111000
     28 N5          -2.7620     0.1860     0.6670 nb         1 19V      -0.683000
     29 N3          -0.8780    -0.3240    -0.5810 nh         1 19V      -0.818100
     30 C19          1.1830     0.9200    -0.7980 c6         1 19V       0.077000
     31 C17         -0.2850    -1.3880    -1.2410 ca         1 19V       0.306000
     32 C14         -1.0250    -2.5000    -1.6690 ca         1 19V      -0.160000
     33 C13         -0.4300    -3.5420    -2.3560 ca         1 19V      -0.091000
     34 C12          0.9290    -3.5090    -2.6390 ca         1 19V      -0.136000
     35 N4           1.9050    -0.3190    -1.0340 n          1 19V      -0.239400
     36 C33          3.0850    -0.6060    -0.3450 c          1 19V       0.648100
     37 O2           3.3260    -1.7140     0.1070 o          1 19V      -0.610100
     38 N1           3.9370     0.4360    -0.2300 ns         1 19V      -0.513900
     39 C7           6.1650     2.4520    -0.4800 c6         1 19V      -0.071400
     40 O1           9.3020     1.1170     3.0680 o          1 19V      -0.606100
     41 N2          10.2930    -0.0880     1.4570 nt         1 19V      -0.610000
     42 H1           4.9740    -0.1670     1.4450 h1         1 19V       0.075700
     43 H2           4.9750     2.3130     1.3260 hc         1 19V       0.069200
     44 H3           7.3350     2.5770     1.9760 hc         1 19V       0.054200
     45 H4           6.6630     1.1050     2.6550 hc         1 19V       0.054200
     46 H5           8.2290    -1.2380     0.1700 hc         1 19V       0.054200
     47 H6           7.1960    -1.1520     1.5870 hc         1 19V       0.054200
     48 H7           5.8780    -1.4600    -0.4820 hc         1 19V       0.069200
     49 H8           7.4310    -0.3450    -2.0590 hc         1 19V       0.041200
     50 H9           5.8290     0.3460    -2.2110 hc         1 19V       0.041200
     51 H10          8.8890     2.4580    -0.0510 hc         1 19V       0.043200
     52 H11          9.2320     0.9080    -0.8060 hc         1 19V       0.043200
     53 H12          7.5480     2.1430    -2.1060 hc         1 19V       0.051700
     54 H13          2.7370    -2.3950    -2.4240 ha         1 19V       0.120000
     55 H14         -0.5810     1.5580     0.2420 h1         1 19V       0.061200
     56 H15          0.3120     0.2820     1.0620 h1         1 19V       0.061200
     57 H16         -2.6640    -0.4510    -2.6130 ha         1 19V       0.133000
     58 H17         -4.3890     0.6620     1.7960 h4         1 19V       0.020100
     59 H19         -6.7520     0.0560     1.9240 h1         1 19V       0.044200
     60 H20         -8.5500     1.6400     2.1870 h1         1 19V       0.040450
     61 H21         -8.2550     2.3540     0.6030 h1         1 19V       0.040450
     62 H22         -7.2520    -1.3550    -0.3070 h1         1 19V       0.044200
     63 H23         -6.9600    -0.4930    -1.8170 h1         1 19V       0.044200
     64 H24        -10.7990     2.1180    -0.8620 hc         1 19V       0.038367
     65 H25        -12.0900     2.1560     0.3310 hc         1 19V       0.038367
     66 H26        -10.5250     2.8590     0.7170 hc         1 19V       0.038367
     67 H27        -11.0090    -1.4250     0.3630 hc         1 19V       0.038367
     68 H28        -12.4200    -0.3650     0.3720 hc         1 19V       0.038367
     69 H29        -11.3500    -0.3670    -1.0120 hc         1 19V       0.038367
     70 H31        -10.4520     1.4220     2.8280 hc         1 19V       0.038367
     71 H32        -11.9750     0.6690     2.4050 hc         1 19V       0.038367
     72 H33        -10.5520    -0.3380     2.6890 hc         1 19V       0.038367
     73 H34         -8.7190     1.0850    -1.3960 h1         1 19V       0.040450
     74 H35         -9.3030    -0.5740    -1.2570 h1         1 19V       0.040450
     75 H36         -5.0570    -0.0790    -2.3870 ha         1 19V       0.121000
     76 H37          0.8630     1.3570    -1.7470 h1         1 19V       0.058700
     77 H38          1.8200     1.6450    -0.2980 h1         1 19V       0.058700
     78 H39         -2.0810    -2.5600    -1.4480 ha         1 19V       0.118000
     79 H40         -1.0370    -4.3820    -2.6710 ha         1 19V       0.110000
     80 H41          1.4010    -4.3090    -3.1930 ha         1 19V       0.115000
     81 H42          3.7900     1.2460    -0.8100 hn         1 19V       0.314500
     82 H43          5.3210     2.6220    -1.1560 hc         1 19V       0.041200
     83 H44          6.5480     3.4440    -0.2260 hc         1 19V       0.041200
     84 H45         10.2780    -0.5070     0.5440 hn         1 19V       0.312500
     85 H46         11.1230    -0.2280     2.0100 hn         1 19V       0.312500
     86 H18         -6.1960     1.7070     1.6230 h1         1 19V       0.044200
     87 C29        -10.5670     0.6690     0.7630 c3         1 19V       0.211200
@<TRIPOS>BOND
     1     1     2 1   
     2     1     6 1   
     3     1    38 1   
     4     1    42 1   
     5     2     3 1   
     6     2    39 1   
     7     2    43 1   
     8     3     4 1   
     9     3    44 1   
    10     3    45 1   
    11     4     5 1   
    12     4     8 1   
    13     4    10 1   
    14     5     6 1   
    15     5    46 1   
    16     5    47 1   
    17     6     7 1   
    18     6    48 1   
    19     7     9 1   
    20     7    49 1   
    21     7    50 1   
    22     8     9 1   
    23     8    51 1   
    24     8    52 1   
    25     9    39 1   
    26     9    53 1   
    27    10    40 2   
    28    10    41 1   
    29    11    12 ar  
    30    11    34 ar  
    31    11    54 1   
    32    12    31 ar  
    33    12    35 1   
    34    13    29 1   
    35    13    30 1   
    36    13    55 1   
    37    13    56 1   
    38    14    15 ar  
    39    14    28 ar  
    40    14    29 1   
    41    15    27 ar  
    42    15    57 1   
    43    16    26 ar  
    44    16    28 ar  
    45    16    58 1   
    46    17    18 1   
    47    17    25 1   
    48    17    59 1   
    49    17    86 1   
    50    18    22 1   
    51    18    60 1   
    52    18    61 1   
    53    19    24 1   
    54    19    25 1   
    55    19    62 1   
    56    19    63 1   
    57    20    64 1   
    58    20    65 1   
    59    20    66 1   
    60    20    87 1   
    61    21    67 1   
    62    21    68 1   
    63    21    69 1   
    64    21    87 1   
    65    22    24 1   
    66    22    87 1   
    67    23    70 1   
    68    23    71 1   
    69    23    72 1   
    70    23    87 1   
    71    24    73 1   
    72    24    74 1   
    73    25    26 1   
    74    26    27 ar  
    75    27    75 1   
    76    29    31 1   
    77    30    35 1   
    78    30    76 1   
    79    30    77 1   
    80    31    32 ar  
    81    32    33 ar  
    82    32    78 1   
    83    33    34 ar  
    84    33    79 1   
    85    34    80 1   
    86    35    36 1   
    87    36    37 2   
    88    36    38 1   
    89    38    81 1   
    90    39    82 1   
    91    39    83 1   
    92    41    84 1   
    93    41    85 1   
@<TRIPOS>SUBSTRUCTURE
     1 19V         1 TEMP              0 ****  ****    0 ROOT
