@<TRIPOS>MOLECULE
19V
   87    93     1     0     0
SMALL
No Charge or Current Charge


@<TRIPOS>ATOM
      1 C1           5.4510    -0.0830     0.5120 c6         1 19V       0.133700
      2 C2           5.7770     1.1760     1.3760 c6         1 19V      -0.078200
      3 C3           7.2120     1.0350     1.9600 c6         1 19V      -0.056400
      4 C4           8.2680     0.9410     0.8070 c6         1 19V      -0.130000
      5 C5           7.9100    -0.2740    -0.1210 c6         1 19V      -0.056400
      6 C6           6.4610    -0.1400    -0.6780 c6         1 19V      -0.078200
      7 C8           6.3690     1.1530    -1.5410 c6         1 19V      -0.071400
      8 C9           8.1560     2.2220    -0.0960 c6         1 19V      -0.061400
      9 C10          6.7140     2.3830    -0.6590 c6         1 19V      -0.061700
     10 C11          9.7220     0.7910     1.3460 c          1 19V       0.611100
     11 C15          1.6640    -2.9750    -2.1390 ca         1 19V      -0.074000
     12 C16          1.1240    -1.8860    -1.4130 ca         1 19V      -0.086000
     13 C18          0.0470     0.1700     0.3070 c6         1 19V       0.213800
     14 C20         -2.2310    -0.5900    -0.2850 ca         1 19V       0.560900
     15 C21         -3.0330    -0.5460    -1.4410 ca         1 19V      -0.148000
     16 C24         -4.0440    -0.0980     1.0580 ca         1 19V       0.299900
     17 C25         -6.8670     0.8900     1.3410 c6         1 19V       0.195300
     18 C26         -8.2670     1.5530     1.1280 c6         1 19V       0.167300
     19 C28         -7.3580    -0.6770    -0.5200 c6         1 19V       0.195300
     20 C31        -10.8050     2.3560    -0.5110 c3         1 19V      -0.097433
     21 C32        -11.6850     0.0490     0.0010 c3         1 19V      -0.097433
     22 N7          -9.2970     0.6100     0.5630 n3         1 19V      -0.734600
     23 C30        -11.2010     1.6320     1.8670 c3         1 19V      -0.097433
     24 C27         -8.7500     0.0110    -0.7070 c6         1 19V       0.167300
     25 N6          -6.3420     0.2270     0.1050 nh         1 19V      -0.777400
     26 C23         -4.9510    -0.0520    -0.0420 ca         1 19V       0.231000
     27 C22         -4.4090    -0.2780    -1.3220 ca         1 19V      -0.111000
     28 N5          -2.7150    -0.3570     0.9470 nb         1 19V      -0.683000
     29 N3          -0.8510    -0.8310    -0.3380 nh         1 19V      -0.818100
     30 C19          1.3190     0.4070    -0.5340 c6         1 19V       0.077000
     31 C17         -0.2680    -1.8950    -1.0910 ca         1 19V       0.306000
     32 C14         -1.0640    -2.9790    -1.5250 ca         1 19V      -0.160000
     33 C13         -0.5160    -4.0300    -2.2740 ca         1 19V      -0.091000
     34 C12          0.8480    -4.0240    -2.5840 ca         1 19V      -0.136000
     35 N4           1.9950    -0.8880    -0.8100 n          1 19V      -0.239400
     36 C33          3.3240    -1.1450    -0.3610 c          1 19V       0.648100
     37 O2           3.8100    -2.2660    -0.3120 o          1 19V      -0.610100
     38 N1           4.0610    -0.0530     0.0400 ns         1 19V      -0.513900
     39 C7           5.7030     2.4760     0.5180 c6         1 19V      -0.071400
     40 O1           9.9980     0.7400     2.5330 o          1 19V      -0.606100
     41 N2          10.7150     0.7150     0.4320 nt         1 19V      -0.610000
     42 H1           5.5780    -0.9810     1.1350 h1         1 19V       0.075700
     43 H2           5.0590     1.2430     2.2050 hc         1 19V       0.069200
     44 H3           7.4350     1.8930     2.6100 hc         1 19V       0.054200
     45 H4           7.2670     0.1420     2.5990 hc         1 19V       0.054200
     46 H5           8.6170    -0.3530    -0.9580 hc         1 19V       0.054200
     47 H6           8.0020    -1.2130     0.4430 hc         1 19V       0.054200
     48 H7           6.2370    -1.0130    -1.3050 hc         1 19V       0.069200
     49 H8           7.0640     1.0900    -2.3900 hc         1 19V       0.041200
     50 H9           5.3660     1.2610    -1.9740 hc         1 19V       0.041200
     51 H10          8.4260     3.1130     0.4880 hc         1 19V       0.043200
     52 H11          8.8690     2.1790    -0.9310 hc         1 19V       0.043200
     53 H12          6.6570     3.2970    -1.2660 hc         1 19V       0.051700
     54 H13          2.7210    -3.0030    -2.3920 ha         1 19V       0.120000
     55 H14         -0.4670     1.1360     0.4250 h1         1 19V       0.061200
     56 H15          0.3340    -0.1750     1.3110 h1         1 19V       0.061200
     57 H16         -2.5870    -0.7080    -2.4170 ha         1 19V       0.133000
     58 H17         -4.3970     0.0730     2.0740 h4         1 19V       0.020100
     59 H19         -6.9480     0.1510     2.1510 h1         1 19V       0.044200
     60 H20         -8.5830     1.9510     2.1010 h1         1 19V       0.040450
     61 H21         -8.1320     2.4150     0.4580 h1         1 19V       0.040450
     62 H22         -7.4920    -1.5690     0.1110 h1         1 19V       0.044200
     63 H23         -7.0190    -1.0290    -1.5040 h1         1 19V       0.044200
     64 H24        -10.5230     2.0650    -1.5290 hc         1 19V       0.038367
     65 H25        -11.8350     2.7300    -0.5450 hc         1 19V       0.038367
     66 H26        -10.1640     3.1890    -0.2020 hc         1 19V       0.038367
     67 H27        -11.5730    -0.8570     0.6100 hc         1 19V       0.038367
     68 H28        -12.7260     0.3840     0.0870 hc         1 19V       0.038367
     69 H29        -11.5270    -0.2190    -1.0500 hc         1 19V       0.038367
     70 H31        -10.6720     2.5300     2.2060 hc         1 19V       0.038367
     71 H32        -12.2670     1.8860     1.8370 hc         1 19V       0.038367
     72 H33        -11.0650     0.8460     2.6200 hc         1 19V       0.038367
     73 H34         -8.6410     0.7860    -1.4780 h1         1 19V       0.040450
     74 H35         -9.4290    -0.7510    -1.1120 h1         1 19V       0.040450
     75 H36         -5.0340    -0.2300    -2.2080 ha         1 19V       0.121000
     76 H37          1.0390     0.8700    -1.4910 h1         1 19V       0.058700
     77 H38          1.9550     1.1220     0.0010 h1         1 19V       0.058700
     78 H39         -2.1180    -3.0280    -1.2710 ha         1 19V       0.118000
     79 H40         -1.1460    -4.8540    -2.6020 ha         1 19V       0.110000
     80 H41          1.2790    -4.8420    -3.1580 ha         1 19V       0.115000
     81 H42          3.6190     0.8500    -0.0540 hn         1 19V       0.314500
     82 H43          4.6860     2.6340     0.1340 hc         1 19V       0.041200
     83 H44          5.9310     3.3520     1.1410 hc         1 19V       0.041200
     84 H45         10.5000     0.7580    -0.5530 hn         1 19V       0.312500
     85 H46         11.6690     0.6170     0.7460 hn         1 19V       0.312500
     86 H18         -6.1690     1.6700     1.6780 h1         1 19V       0.044200
     87 C29        -10.6990     1.1570     0.4720 c3         1 19V       0.211200
@<TRIPOS>BOND
     1     1     2 1   
     2     1     6 1   
     3     1    38 1   
     4     1    42 1   
     5     2     3 1   
     6     2    39 1   
     7     2    43 1   
     8     3     4 1   
     9     3    44 1   
    10     3    45 1   
    11     4     5 1   
    12     4     8 1   
    13     4    10 1   
    14     5     6 1   
    15     5    46 1   
    16     5    47 1   
    17     6     7 1   
    18     6    48 1   
    19     7     9 1   
    20     7    49 1   
    21     7    50 1   
    22     8     9 1   
    23     8    51 1   
    24     8    52 1   
    25     9    39 1   
    26     9    53 1   
    27    10    40 2   
    28    10    41 1   
    29    11    12 ar  
    30    11    34 ar  
    31    11    54 1   
    32    12    31 ar  
    33    12    35 1   
    34    13    29 1   
    35    13    30 1   
    36    13    55 1   
    37    13    56 1   
    38    14    15 ar  
    39    14    28 ar  
    40    14    29 1   
    41    15    27 ar  
    42    15    57 1   
    43    16    26 ar  
    44    16    28 ar  
    45    16    58 1   
    46    17    18 1   
    47    17    25 1   
    48    17    59 1   
    49    17    86 1   
    50    18    22 1   
    51    18    60 1   
    52    18    61 1   
    53    19    24 1   
    54    19    25 1   
    55    19    62 1   
    56    19    63 1   
    57    20    64 1   
    58    20    65 1   
    59    20    66 1   
    60    20    87 1   
    61    21    67 1   
    62    21    68 1   
    63    21    69 1   
    64    21    87 1   
    65    22    24 1   
    66    22    87 1   
    67    23    70 1   
    68    23    71 1   
    69    23    72 1   
    70    23    87 1   
    71    24    73 1   
    72    24    74 1   
    73    25    26 1   
    74    26    27 ar  
    75    27    75 1   
    76    29    31 1   
    77    30    35 1   
    78    30    76 1   
    79    30    77 1   
    80    31    32 ar  
    81    32    33 ar  
    82    32    78 1   
    83    33    34 ar  
    84    33    79 1   
    85    34    80 1   
    86    35    36 1   
    87    36    37 2   
    88    36    38 1   
    89    38    81 1   
    90    39    82 1   
    91    39    83 1   
    92    41    84 1   
    93    41    85 1   
@<TRIPOS>SUBSTRUCTURE
     1 19V         1 TEMP              0 ****  ****    0 ROOT
