@<TRIPOS>MOLECULE
19Y
   36    38     1     0     0
SMALL
bcc


@<TRIPOS>ATOM
      1 O20         -3.1570    -3.0330    -0.0930 o          1 19Y      -0.511100
      2 C19         -3.7140    -1.9570    -0.1710 c          1 19Y       0.603100
      3 C5          -3.0720    -0.6660    -0.1670 cc         1 19Y      -0.204400
      4 C1          -3.7780     0.5260    -0.2230 cd         1 19Y      -0.017300
      5 C21         -5.2460     0.7820    -0.2370 c3         1 19Y      -0.031200
      6 C22         -5.8330     0.8420     1.1740 c3         1 19Y      -0.090100
      7 C4          -1.6790    -0.3100    -0.1030 ca         1 19Y      -0.306400
      8 C6          -0.4200    -0.9260    -0.0340 ca         1 19Y       0.749600
      9 O17         -0.3240    -2.2370    -0.0020 os         1 19Y      -0.393100
     10 C18          0.9790    -2.8130     0.0830 c3         1 19Y       0.132700
     11 N7           0.6790    -0.1970     0.0030 nb         1 19Y      -0.836000
     12 C8           0.5750     1.1220    -0.0270 ca         1 19Y       0.807300
     13 N9          -0.5270     1.8380    -0.0890 nb         1 19Y      -0.729000
     14 C3          -1.6220     1.0870    -0.1250 ca         1 19Y       0.466800
     15 N2          -2.8970     1.5570    -0.1940 na         1 19Y      -0.254100
     16 S10          2.0530     2.0930     0.0340 ss         1 19Y      -0.211200
     17 C11          3.2970     0.8410     0.0530 ca         1 19Y      -0.131400
     18 C16          3.9640     0.4810    -1.1080 ca         1 19Y      -0.035000
     19 C15          4.9460    -0.4950    -1.0280 ca         1 19Y      -0.263300
     20 C14          5.2080    -1.0690     0.2070 ca         1 19Y       0.425200
     21 N13          4.5740    -0.7250     1.3240 nb         1 19Y      -0.678000
     22 C12          3.6440     0.2140     1.2450 ca         1 19Y       0.462200
     23 H1          -4.8140    -1.9080    -0.2520 h4         1 19Y      -0.022800
     24 H2          -5.4360     1.7250    -0.7530 hc         1 19Y       0.059200
     25 H3          -5.7500     0.0090    -0.8150 hc         1 19Y       0.059200
     26 H4          -5.7050    -0.1070     1.6950 hc         1 19Y       0.043700
     27 H5          -5.3570     1.6210     1.7700 hc         1 19Y       0.043700
     28 H6          -6.8990     1.0600     1.1260 hc         1 19Y       0.043700
     29 H7           0.8210    -3.8880     0.1070 h1         1 19Y       0.052700
     30 H8           1.5900    -2.5510    -0.7810 h1         1 19Y       0.052700
     31 H9           1.4970    -2.4970     0.9880 h1         1 19Y       0.052700
     32 H10         -3.1440     2.5350    -0.2310 hn         1 19Y       0.315700
     33 H11          3.7220     0.9500    -2.0520 ha         1 19Y       0.149000
     34 H12          5.4950    -0.8080    -1.9040 ha         1 19Y       0.145000
     35 H13          5.9660    -1.8390     0.2980 h4         1 19Y       0.020100
     36 H14          3.1420     0.4870     2.1660 h4         1 19Y       0.031100
@<TRIPOS>BOND
     1     1     2 2   
     2     2     3 1   
     3     2    23 1   
     4     3     4 2   
     5     3     7 1   
     6     4     5 1   
     7     4    15 1   
     8     5     6 1   
     9     5    24 1   
    10     5    25 1   
    11     6    26 1   
    12     6    27 1   
    13     6    28 1   
    14     7     8 ar  
    15     7    14 ar  
    16     8     9 1   
    17     8    11 ar  
    18     9    10 1   
    19    10    29 1   
    20    10    30 1   
    21    10    31 1   
    22    11    12 ar  
    23    12    13 ar  
    24    12    16 1   
    25    13    14 ar  
    26    14    15 1   
    27    15    32 1   
    28    16    17 1   
    29    17    18 ar  
    30    17    22 ar  
    31    18    19 ar  
    32    18    33 1   
    33    19    20 ar  
    34    19    34 1   
    35    20    21 ar  
    36    20    35 1   
    37    21    22 ar  
    38    22    36 1   
@<TRIPOS>SUBSTRUCTURE
     1 19Y         1 TEMP              0 ****  ****    0 ROOT
