@<TRIPOS>MOLECULE
19Y
   36    38     1     0     0
SMALL
No Charge or Current Charge


@<TRIPOS>ATOM
      1 O20         -3.1630    -3.0290    -0.1040 o          1 19Y      -0.511100
      2 C19         -3.7140    -1.9400    -0.0050 c          1 19Y       0.603100
      3 C5          -3.0670    -0.6050    -0.1560 cc         1 19Y      -0.204400
      4 C1          -3.7620     0.5920    -0.0260 cd         1 19Y      -0.017300
      5 C21         -5.2260     0.8230     0.2650 c3         1 19Y      -0.031200
      6 C22         -5.5410     0.7570     1.7720 c3         1 19Y      -0.090100
      7 C4          -1.6860    -0.2430    -0.4390 ca         1 19Y      -0.175800
      8 C6          -0.5100    -0.9920    -0.6730 ca         1 19Y       0.421300
      9 O17         -0.5390    -2.3680    -0.6590 os         1 19Y      -0.416300
     10 C18          0.6570    -3.1440    -0.8690 c3         1 19Y       0.155900
     11 N7           0.6510    -0.3450    -0.9130 nb         1 19Y      -0.310000
     12 C8           0.6260     1.0070    -0.9080 ca         1 19Y       0.281300
     13 N9          -0.4620     1.7760    -0.6950 nb         1 19Y      -0.203000
     14 C3          -1.6170     1.1310    -0.4600 ca         1 19Y       0.138500
     15 N2          -2.8680     1.6650    -0.2120 na         1 19Y      -0.304400
     16 S10          2.1670     1.8640    -1.2260 ss         1 19Y      -0.084300
     17 C11          3.3150     0.8600    -0.2800 ca         1 19Y      -0.193000
     18 C16          4.5050     0.4080    -0.8720 ca         1 19Y      -0.017000
     19 C15          5.3740    -0.3740    -0.0960 ca         1 19Y      -0.180000
     20 C14          5.0290    -0.6710     1.2330 ca         1 19Y       0.359900
     21 N13          3.8870    -0.2350     1.8120 nb         1 19Y      -0.678000
     22 C12          3.0480     0.5190     1.0620 ca         1 19Y       0.396900
     23 H1          -4.8010    -1.9020     0.2230 h4         1 19Y      -0.022800
     24 H2          -5.5330     1.8050    -0.1150 hc         1 19Y       0.059200
     25 H3          -5.8440     0.0900    -0.2670 hc         1 19Y       0.059200
     26 H4          -5.2850    -0.2280     2.1800 hc         1 19Y       0.043700
     27 H5          -4.9690     1.5170     2.3190 hc         1 19Y       0.043700
     28 H6          -6.6080     0.9360     1.9490 hc         1 19Y       0.043700
     29 H7           0.4310    -4.2160    -0.8160 h1         1 19Y       0.052700
     30 H8           1.0910    -2.9370    -1.8560 h1         1 19Y       0.052700
     31 H9           1.4110    -2.9170    -0.1030 h1         1 19Y       0.052700
     32 H10         -3.0950     2.6520    -0.1710 hn         1 19Y       0.366000
     33 H11          4.7480     0.6530    -1.9040 ha         1 19Y       0.131000
     34 H12          6.3050    -0.7490    -0.5120 ha         1 19Y       0.127000
     35 H13          5.6870    -1.2770     1.8550 h4         1 19Y       0.020100
     36 H14          2.1370     0.8600     1.5530 h4         1 19Y       0.031100
@<TRIPOS>BOND
     1     1     2 2   
     2     2     3 1   
     3     2    23 1   
     4     3     4 2   
     5     3     7 1   
     6     4     5 1   
     7     4    15 1   
     8     5     6 1   
     9     5    24 1   
    10     5    25 1   
    11     6    26 1   
    12     6    27 1   
    13     6    28 1   
    14     7     8 ar  
    15     7    14 ar  
    16     8     9 1   
    17     8    11 ar  
    18     9    10 1   
    19    10    29 1   
    20    10    30 1   
    21    10    31 1   
    22    11    12 ar  
    23    12    13 ar  
    24    12    16 1   
    25    13    14 ar  
    26    14    15 1   
    27    15    32 1   
    28    16    17 1   
    29    17    18 ar  
    30    17    22 ar  
    31    18    19 ar  
    32    18    33 1   
    33    19    20 ar  
    34    19    34 1   
    35    20    21 ar  
    36    20    35 1   
    37    21    22 ar  
    38    22    36 1   
@<TRIPOS>SUBSTRUCTURE
     1 19Y         1 TEMP              0 ****  ****    0 ROOT
