@<TRIPOS>MOLECULE
19Z
   34    35     1     0     0
SMALL
abcg2


@<TRIPOS>ATOM
      1 N01          0.5290     0.2750    -0.0380 nu         1 19Z      -0.939200
      2 N02         -1.7110    -3.2450    -0.2330 nt         1 19Z      -0.591000
      3 N03         -5.0290     0.5840     0.1370 no         1 19Z       0.709200
      4 C04         -2.9800    -0.7390     0.1330 ca         1 19Z       0.042000
      5 C05         -1.6040    -0.8550     0.0720 ca         1 19Z      -0.277600
      6 C06         -0.8050     0.3270    -0.0290 ca         1 19Z       0.438000
      7 C07         -1.4750     1.5690    -0.1450 ca         1 19Z      -0.243000
      8 C08         -2.8400     1.6560    -0.1000 ca         1 19Z       0.035000
      9 C09         -3.6030     0.4980     0.0550 ca         1 19Z      -0.281200
     10 C11          1.3990     1.4280    -0.1730 c3         1 19Z       0.279100
     11 C12          2.8330     0.9830    -0.1430 ca         1 19Z      -0.164300
     12 C13          3.4940     0.6260    -1.3150 ca         1 19Z      -0.046000
     13 C14          4.8030     0.1730    -1.2930 ca         1 19Z      -0.179000
     14 C15          5.4790     0.0650    -0.0800 ca         1 19Z       0.158100
     15 C16          4.8300     0.4180     1.1010 ca         1 19Z      -0.179000
     16 C17          3.5190     0.8700     1.0610 ca         1 19Z      -0.046000
     17 O18          0.1920    -2.3410     0.5400 o          1 19Z      -0.640100
     18 O19          6.7500    -0.3790    -0.1040 oh         1 19Z      -0.529100
     19 O20         -5.6650    -0.4390     0.2960 o          1 19Z      -0.417500
     20 O21         -5.5470     1.6780     0.0450 o          1 19Z      -0.417500
     21 HN01         0.9480    -0.6250     0.1540 hn         1 19Z       0.542000
     22 HN02        -2.5750    -3.1450    -0.7360 hn         1 19Z       0.319000
     23 HN0A        -1.3080    -4.1680    -0.2080 hn         1 19Z       0.319000
     24 H04         -3.5880    -1.6240     0.2600 ha         1 19Z       0.143000
     25 H07         -0.9020     2.4790    -0.2550 ha         1 19Z       0.127000
     26 H08         -3.3100     2.6270    -0.1760 ha         1 19Z       0.147000
     27 H11          1.1870     1.9470    -1.1130 h1         1 19Z       0.051700
     28 H11A         1.2100     2.1430     0.6340 h1         1 19Z       0.051700
     29 H13          2.9820     0.7080    -2.2660 ha         1 19Z       0.117500
     30 H14          5.3040    -0.0960    -2.2150 ha         1 19Z       0.125500
     31 H16          5.3440     0.3400     2.0520 ha         1 19Z       0.125500
     32 H17          3.0300     1.1420     1.9890 ha         1 19Z       0.117500
     33 HO19         7.1070    -0.4280     0.7890 ho         1 19Z       0.469000
     34 C10         -0.9640    -2.1990     0.1440 c          1 19Z       0.632700
@<TRIPOS>BOND
     1     1     6 1   
     2     1    10 1   
     3     1    21 1   
     4     2    22 1   
     5     2    23 1   
     6     2    34 1   
     7     3     9 1   
     8     3    19 1   
     9     3    20 1   
    10     4     5 ar  
    11     4     9 ar  
    12     4    24 1   
    13     5     6 ar  
    14     5    34 1   
    15     6     7 ar  
    16     7     8 ar  
    17     7    25 1   
    18     8     9 ar  
    19     8    26 1   
    20    10    11 1   
    21    10    27 1   
    22    10    28 1   
    23    11    12 ar  
    24    11    16 ar  
    25    12    13 ar  
    26    12    29 1   
    27    13    14 ar  
    28    13    30 1   
    29    14    15 ar  
    30    14    18 1   
    31    15    16 ar  
    32    15    31 1   
    33    16    32 1   
    34    17    34 2   
    35    18    33 1   
@<TRIPOS>SUBSTRUCTURE
     1 19Z         1 TEMP              0 ****  ****    0 ROOT
