@<TRIPOS>MOLECULE
19Z
   34    35     1     0     0
SMALL
No Charge or Current Charge


@<TRIPOS>ATOM
      1 N01          0.5290     0.4090     0.2710 nu         1 19Z      -0.939200
      2 N02         -1.6040    -3.2220    -0.4030 nt         1 19Z      -0.591000
      3 N03         -5.1650     0.5550    -0.0050 no         1 19Z       0.709200
      4 C04         -2.9900    -0.7280    -0.0660 ca         1 19Z       0.042000
      5 C05         -1.5750    -0.7940    -0.0000 ca         1 19Z      -0.277600
      6 C06         -0.8560     0.4070     0.1990 ca         1 19Z       0.438000
      7 C07         -1.5360     1.6250     0.3350 ca         1 19Z      -0.243000
      8 C08         -2.9330     1.6840     0.2680 ca         1 19Z       0.035000
      9 C09         -3.6710     0.5030     0.0650 ca         1 19Z      -0.281200
     10 C11          1.4240     1.4410    -0.2480 c3         1 19Z       0.279100
     11 C12          2.8530     0.9310    -0.1800 ca         1 19Z      -0.164300
     12 C13          3.4120     0.2350    -1.2700 ca         1 19Z      -0.046000
     13 C14          4.7350    -0.2360    -1.2030 ca         1 19Z      -0.179000
     14 C15          5.5030    -0.0170    -0.0510 ca         1 19Z       0.158100
     15 C16          4.9510     0.6740     1.0400 ca         1 19Z      -0.179000
     16 C17          3.6280     1.1470     0.9770 ca         1 19Z      -0.046000
     17 O18          0.3400    -2.2650    -0.0240 o          1 19Z      -0.640100
     18 O19          6.7840    -0.4780     0.0030 oh         1 19Z      -0.529100
     19 O20         -5.7800    -0.5030    -0.1870 o          1 19Z      -0.417500
     20 O21         -5.7180     1.6550     0.1190 o          1 19Z      -0.417500
     21 HN01         0.9020    -0.5480     0.2180 hn         1 19Z       0.542000
     22 HN02        -2.6020    -3.1600    -0.5180 hn         1 19Z       0.319000
     23 HN0A        -1.1340    -4.1100    -0.4950 hn         1 19Z       0.319000
     24 H04         -3.5740    -1.6330    -0.2140 ha         1 19Z       0.143000
     25 H07         -0.9820     2.5430     0.5010 ha         1 19Z       0.127000
     26 H08         -3.4280     2.6480     0.3780 ha         1 19Z       0.147000
     27 H11          1.1690     1.6750    -1.2920 h1         1 19Z       0.051700
     28 H11A         1.3310     2.3670     0.3360 h1         1 19Z       0.051700
     29 H13          2.8220     0.0590    -2.1680 ha         1 19Z       0.117500
     30 H14          5.1630    -0.7720    -2.0460 ha         1 19Z       0.125500
     31 H16          5.5390     0.8470     1.9390 ha         1 19Z       0.125500
     32 H17          3.2050     1.6780     1.8270 ha         1 19Z       0.117500
     33 HO19         7.1640    -0.2370     0.8750 ho         1 19Z       0.469000
     34 C10         -0.8670    -2.1240    -0.1410 c          1 19Z       0.632700
@<TRIPOS>BOND
     1     1     6 1   
     2     1    10 1   
     3     1    21 1   
     4     2    22 1   
     5     2    23 1   
     6     2    34 1   
     7     3     9 1   
     8     3    19 1   
     9     3    20 1   
    10     4     5 ar  
    11     4     9 ar  
    12     4    24 1   
    13     5     6 ar  
    14     5    34 1   
    15     6     7 ar  
    16     7     8 ar  
    17     7    25 1   
    18     8     9 ar  
    19     8    26 1   
    20    10    11 1   
    21    10    27 1   
    22    10    28 1   
    23    11    12 ar  
    24    11    16 ar  
    25    12    13 ar  
    26    12    29 1   
    27    13    14 ar  
    28    13    30 1   
    29    14    15 ar  
    30    14    18 1   
    31    15    16 ar  
    32    15    31 1   
    33    16    32 1   
    34    17    34 2   
    35    18    33 1   
@<TRIPOS>SUBSTRUCTURE
     1 19Z         1 TEMP              0 ****  ****    0 ROOT
