@<TRIPOS>MOLECULE
1A0
   48    52     1     0     0
SMALL
No Charge or Current Charge


@<TRIPOS>ATOM
      1 Cl1          3.6750     2.1420     1.0720 cl         1 1A0      -0.168000
      2 C4           2.2420     2.0240     0.0950 cc         1 1A0       0.081800
      3 C5           1.4960     3.0860    -0.3900 cd         1 1A0      -0.069300
      4 C6           1.7570     4.5640    -0.2470 c3         1 1A0      -0.018200
      5 C7           2.5050     5.1440    -1.4620 c3         1 1A0      -0.089100
      6 N1           0.3610     2.5730    -1.0560 na         1 1A0      -0.303400
      7 C3           1.5540     0.8210    -0.2860 ca         1 1A0      -0.232800
      8 C8           1.8200    -0.5430    -0.0780 ca         1 1A0       0.462900
      9 N13          2.9800    -1.0350     0.5420 nh         1 1A0      -0.775300
     10 C17          4.3090    -0.9770    -0.1380 c5         1 1A0       0.221800
     11 C16          4.9490    -2.3560     0.2450 c5         1 1A0       0.143500
     12 N18          4.5150    -3.4960    -0.5970 n8         1 1A0      -0.995200
     13 C15          4.4400    -2.4830     1.7030 c5         1 1A0      -0.141400
     14 C14          2.9390    -2.1100     1.5680 c5         1 1A0       0.224800
     15 N9           0.9430    -1.4680    -0.5140 nb         1 1A0      -0.306000
     16 C10         -0.1590    -1.0180    -1.1520 ca         1 1A0       0.295300
     17 N11         -0.4600     0.2780    -1.4040 nb         1 1A0      -0.246000
     18 C2           0.4150     1.1930    -0.9580 ca         1 1A0       0.159500
     19 S19         -1.3170    -2.2590    -1.7230 ss         1 1A0      -0.082300
     20 C20         -2.8570    -1.5700    -1.1190 ca         1 1A0      -0.189000
     21 C25         -3.9530    -1.4150    -1.9790 ca         1 1A0       0.157900
     22 N24         -5.1310    -0.9000    -1.5780 nb         1 1A0      -0.115000
     23 C23         -5.2980    -0.5050    -0.2940 ca         1 1A0       0.024000
     24 N26         -6.4830     0.0140     0.1080 nb         1 1A0      -0.079000
     25 C27         -6.6160     0.3950     1.3930 ca         1 1A0       0.052900
     26 C28         -5.5640     0.2650     2.3120 ca         1 1A0       0.286900
     27 N29         -4.3670    -0.2490     1.9480 nb         1 1A0      -0.608000
     28 C22         -4.2280    -0.6330     0.6550 ca         1 1A0       0.161000
     29 C21         -3.0030    -1.1740     0.2200 ca         1 1A0       0.016000
     30 H1           0.8100     5.1030    -0.1210 hc         1 1A0       0.058200
     31 H2           2.3430     4.7600     0.6590 hc         1 1A0       0.058200
     32 H3           3.4750     4.6490    -1.5890 hc         1 1A0       0.040700
     33 H4           1.9210     5.0030    -2.3790 hc         1 1A0       0.040700
     34 H5           2.6810     6.2180    -1.3270 hc         1 1A0       0.040700
     35 H6          -0.3720     3.1090    -1.5080 hn         1 1A0       0.367000
     36 H7           4.2250    -0.8570    -1.2280 h1         1 1A0       0.071200
     37 H8           4.9210    -0.1500     0.2440 h1         1 1A0       0.071200
     38 H9           6.0490    -2.3110     0.2090 h1         1 1A0       0.078700
     39 H10          4.6710    -4.3720    -0.0850 hn         1 1A0       0.400500
     40 H11          3.4930    -3.4480    -0.6890 hn         1 1A0       0.400500
     41 H13          4.5860    -3.4820     2.1290 hc         1 1A0       0.060200
     42 H14          4.9590    -1.7760     2.3610 hc         1 1A0       0.060200
     43 H15          2.5200    -1.7610     2.5230 h1         1 1A0       0.062700
     44 H16          2.3470    -2.9730     1.2300 h1         1 1A0       0.062700
     45 H17         -3.8880    -1.7100    -3.0260 h4         1 1A0       0.039100
     46 H18         -7.5780     0.8080     1.6890 h4         1 1A0       0.034100
     47 H19         -5.6780     0.5750     3.3500 h4         1 1A0       0.033100
     48 H20         -2.1810    -1.2820     0.9230 ha         1 1A0       0.149000
@<TRIPOS>BOND
     1     1     2 1   
     2     2     3 2   
     3     2     7 1   
     4     3     4 1   
     5     3     6 1   
     6     4     5 1   
     7     4    30 1   
     8     4    31 1   
     9     5    32 1   
    10     5    33 1   
    11     5    34 1   
    12     6    18 1   
    13     6    35 1   
    14     7     8 ar  
    15     7    18 ar  
    16     8     9 1   
    17     8    15 ar  
    18     9    10 1   
    19     9    14 1   
    20    10    11 1   
    21    10    36 1   
    22    10    37 1   
    23    11    12 1   
    24    11    13 1   
    25    11    38 1   
    26    12    39 1   
    27    12    40 1   
    28    13    14 1   
    29    13    41 1   
    30    13    42 1   
    31    14    43 1   
    32    14    44 1   
    33    15    16 ar  
    34    16    17 ar  
    35    16    19 1   
    36    17    18 ar  
    37    19    20 1   
    38    20    21 ar  
    39    20    29 ar  
    40    21    22 ar  
    41    21    45 1   
    42    22    23 ar  
    43    23    24 ar  
    44    23    28 ar  
    45    24    25 ar  
    46    25    26 ar  
    47    25    46 1   
    48    26    27 ar  
    49    26    47 1   
    50    27    28 ar  
    51    28    29 ar  
    52    29    48 1   
@<TRIPOS>SUBSTRUCTURE
     1 1A0         1 TEMP              0 ****  ****    0 ROOT
