@<TRIPOS>MOLECULE
1A0
   48    52     1     0     0
SMALL
abcg2


@<TRIPOS>ATOM
      1 CL1          4.1990     2.3500     0.2360 cl         1 1A0      -0.168000
      2 C4           2.5430     1.9510     0.0020 cc         1 1A0       0.081800
      3 C5           1.6320     2.9160    -0.3220 cd         1 1A0      -0.069300
      4 C6           1.8270     4.3590    -0.6260 c3         1 1A0      -0.018200
      5 C7           2.1110     4.6120    -2.1070 c3         1 1A0      -0.089100
      6 N1           0.3990     2.3200    -0.3750 na         1 1A0      -0.303400
      7 C3           1.8560     0.6970     0.1550 ca         1 1A0      -0.232800
      8 C8           2.0870    -0.6750     0.4730 ca         1 1A0       0.462900
      9 N13          3.2730    -1.2780     0.6270 nh         1 1A0      -0.775300
     10 C17          4.5700    -0.7850     0.1800 c5         1 1A0       0.221800
     11 C16          5.3730    -2.0570    -0.0740 c5         1 1A0       0.143500
     12 N18          5.1620    -2.5290    -1.4340 n8         1 1A0      -0.995200
     13 C15          4.8390    -2.9730     1.0300 c5         1 1A0      -0.141400
     14 C14          3.3440    -2.6860     1.0270 c5         1 1A0       0.224800
     15 N9           1.0220    -1.4740     0.6380 nb         1 1A0      -0.306000
     16 C10         -0.1930    -1.0060     0.4250 ca         1 1A0       0.295300
     17 N11         -0.5490     0.1940     0.0470 nb         1 1A0      -0.246000
     18 C2           0.5000     1.0120    -0.0680 ca         1 1A0       0.159500
     19 S19         -1.4330    -2.2440     0.7000 ss         1 1A0      -0.082300
     20 C20         -2.9140    -1.3550     0.3560 ca         1 1A0      -0.189000
     21 C25         -3.2020    -0.9220    -0.9650 ca         1 1A0       0.157900
     22 N24         -4.2980    -0.3080    -1.3050 nb         1 1A0      -0.115000
     23 C23         -5.2230    -0.0800    -0.3500 ca         1 1A0       0.024000
     24 N26         -6.3520     0.5500    -0.7310 nb         1 1A0      -0.079000
     25 C27         -7.2450     0.7680     0.1940 ca         1 1A0       0.052900
     26 C28         -7.0570     0.3680     1.5400 ca         1 1A0       0.286900
     27 N29         -5.9770    -0.2470     1.9330 nb         1 1A0      -0.608000
     28 C22         -5.0400    -0.4820     0.9910 ca         1 1A0       0.161000
     29 C21         -3.8370    -1.1340     1.3370 ca         1 1A0       0.016000
     30 H1           0.9390     4.9150    -0.3180 hc         1 1A0       0.058200
     31 H2           2.6530     4.7400    -0.0240 hc         1 1A0       0.058200
     32 H3           3.0170     4.0940    -2.4240 hc         1 1A0       0.040700
     33 H4           1.2890     4.2650    -2.7320 hc         1 1A0       0.040700
     34 H5           2.2480     5.6770    -2.2920 hc         1 1A0       0.040700
     35 H6          -0.4690     2.7980    -0.5610 hn         1 1A0       0.367000
     36 H7           4.4790    -0.1860    -0.7260 h1         1 1A0       0.071200
     37 H8           5.0510    -0.1810     0.9510 h1         1 1A0       0.071200
     38 H9           6.4390    -1.8580     0.0530 h1         1 1A0       0.078700
     39 H10          5.6300    -3.4180    -1.5610 hn         1 1A0       0.400500
     40 H11          4.1780    -2.7100    -1.6010 hn         1 1A0       0.400500
     41 H13          5.0580    -4.0260     0.8540 hc         1 1A0       0.060200
     42 H14          5.2800    -2.6960     1.9910 hc         1 1A0       0.060200
     43 H15          2.8790    -2.8430     2.0010 h1         1 1A0       0.062700
     44 H16          2.8130    -3.3190     0.3120 h1         1 1A0       0.062700
     45 H17         -2.4780    -1.1100    -1.7500 h4         1 1A0       0.039100
     46 H18         -8.1590     1.2750    -0.0910 h4         1 1A0       0.034100
     47 H19         -7.8250     0.5710     2.2760 h4         1 1A0       0.033100
     48 H20         -3.6710    -1.4380     2.3630 ha         1 1A0       0.149000
@<TRIPOS>BOND
     1     1     2 1   
     2     2     3 2   
     3     2     7 1   
     4     3     4 1   
     5     3     6 1   
     6     4     5 1   
     7     4    30 1   
     8     4    31 1   
     9     5    32 1   
    10     5    33 1   
    11     5    34 1   
    12     6    18 1   
    13     6    35 1   
    14     7     8 ar  
    15     7    18 ar  
    16     8     9 1   
    17     8    15 ar  
    18     9    10 1   
    19     9    14 1   
    20    10    11 1   
    21    10    36 1   
    22    10    37 1   
    23    11    12 1   
    24    11    13 1   
    25    11    38 1   
    26    12    39 1   
    27    12    40 1   
    28    13    14 1   
    29    13    41 1   
    30    13    42 1   
    31    14    43 1   
    32    14    44 1   
    33    15    16 ar  
    34    16    17 ar  
    35    16    19 1   
    36    17    18 ar  
    37    19    20 1   
    38    20    21 ar  
    39    20    29 ar  
    40    21    22 ar  
    41    21    45 1   
    42    22    23 ar  
    43    23    24 ar  
    44    23    28 ar  
    45    24    25 ar  
    46    25    26 ar  
    47    25    46 1   
    48    26    27 ar  
    49    26    47 1   
    50    27    28 ar  
    51    28    29 ar  
    52    29    48 1   
@<TRIPOS>SUBSTRUCTURE
     1 1A0         1 TEMP              0 ****  ****    0 ROOT
