@<TRIPOS>MOLECULE
1A1
   39    43     1     0     0
SMALL
No Charge or Current Charge


@<TRIPOS>ATOM
      1 O9           4.0470    -2.2070     0.9960 o          1 1A1      -0.523100
      2 C8           4.4500    -1.1400     0.5550 c          1 1A1       0.649100
      3 C10          5.9220    -0.8290     0.4280 cx         1 1A1      -0.256700
      4 C12          6.8350    -1.8510    -0.2250 cx         1 1A1      -0.092400
      5 C11          6.4990    -0.5690    -0.9510 cx         1 1A1      -0.092400
      6 N7           3.6330    -0.1060     0.1480 ns         1 1A1      -0.312900
      7 C6           2.2310    -0.0020     0.1100 ca         1 1A1       0.303900
      8 N1           1.5020    -1.1330     0.1420 nb         1 1A1      -0.151000
      9 N5           1.7750     1.2620     0.0260 nb         1 1A1      -0.288000
     10 C4           0.4320     1.4480    -0.0270 ca         1 1A1       0.334500
     11 N22         -0.1340     2.7200    -0.1170 na         1 1A1      -0.202000
     12 C26          0.3210     3.8300     0.5560 cc         1 1A1      -0.193000
     13 C25         -0.4440     4.8520     0.0490 cd         1 1A1       0.234900
     14 N24         -1.3120     4.3870    -0.9300 nd         1 1A1      -0.663000
     15 C23         -1.0950     3.0790    -1.0290 cc         1 1A1       0.440400
     16 C3          -0.4240     0.3070     0.0090 ca         1 1A1      -0.059600
     17 N13         -1.8260     0.3180    -0.0170 nc         1 1A1      -0.518100
     18 C14         -2.2310    -0.9600     0.0450 cd         1 1A1       0.430800
     19 S15         -0.9910    -2.2410     0.1350 ss         1 1A1      -0.101500
     20 C2           0.1750    -0.9400     0.0920 ca         1 1A1       0.159300
     21 C16         -3.6690    -1.2930     0.0410 ca         1 1A1      -0.177900
     22 C21         -4.6350    -0.2640    -0.0060 ca         1 1A1       0.383900
     23 N20         -5.9710    -0.4920    -0.0140 nb         1 1A1      -0.665000
     24 C19         -6.3940    -1.7740     0.0230 ca         1 1A1       0.354900
     25 C18         -5.5120    -2.8630     0.0690 ca         1 1A1      -0.165000
     26 C17         -4.1280    -2.6290     0.0780 ca         1 1A1      -0.055000
     27 H1           6.3390    -0.2560     1.2520 hc         1 1A1       0.089700
     28 H2           7.8420    -1.9590     0.1720 hc         1 1A1       0.084950
     29 H3           6.3950    -2.7730    -0.5980 hc         1 1A1       0.084950
     30 H4           5.8380    -0.6380    -1.8130 hc         1 1A1       0.084950
     31 H5           7.2820     0.1800    -1.0430 hc         1 1A1       0.084950
     32 H6           4.1200     0.7270    -0.1520 hn         1 1A1       0.173000
     33 H7           1.1040     3.8180     1.3050 h4         1 1A1       0.174000
     34 H8          -0.4100     5.9000     0.3230 h4         1 1A1       0.042100
     35 H9          -1.5660     2.3820    -1.7130 h5         1 1A1       0.085100
     36 H10         -4.3440     0.7860    -0.0370 h4         1 1A1       0.040100
     37 H11         -7.4720    -1.9320     0.0150 h4         1 1A1       0.024100
     38 H12         -5.9030    -3.8770     0.0980 ha         1 1A1       0.130000
     39 H13         -3.4440    -3.4740     0.1140 ha         1 1A1       0.124000
@<TRIPOS>BOND
     1     1     2 2   
     2     2     3 1   
     3     2     6 1   
     4     3     4 1   
     5     3     5 1   
     6     3    27 1   
     7     4     5 1   
     8     4    28 1   
     9     4    29 1   
    10     5    30 1   
    11     5    31 1   
    12     6     7 1   
    13     6    32 1   
    14     7     8 ar  
    15     7     9 ar  
    16     8    20 ar  
    17     9    10 ar  
    18    10    11 1   
    19    10    16 ar  
    20    11    12 1   
    21    11    15 1   
    22    12    13 2   
    23    12    33 1   
    24    13    14 1   
    25    13    34 1   
    26    14    15 2   
    27    15    35 1   
    28    16    17 1   
    29    16    20 ar  
    30    17    18 2   
    31    18    19 1   
    32    18    21 1   
    33    19    20 1   
    34    21    22 ar  
    35    21    26 ar  
    36    22    23 ar  
    37    22    36 1   
    38    23    24 ar  
    39    24    25 ar  
    40    24    37 1   
    41    25    26 ar  
    42    25    38 1   
    43    26    39 1   
@<TRIPOS>SUBSTRUCTURE
     1 1A1         1 TEMP              0 ****  ****    0 ROOT
