@<TRIPOS>MOLECULE
1A1
   39    43     1     0     0
SMALL
bcc


@<TRIPOS>ATOM
      1 O9           4.0130    -2.1720    -0.1840 o          1 1A1      -0.523100
      2 C8           4.3740    -1.0170    -0.1340 c          1 1A1       0.716100
      3 C10          5.8010    -0.6090    -0.1300 cx         1 1A1      -0.256700
      4 C12          6.7880    -1.5160     0.5600 cx         1 1A1      -0.092400
      5 C11          6.7710    -1.4520    -0.9200 cx         1 1A1      -0.092400
      6 N7           3.5130     0.0560    -0.0770 ns         1 1A1      -0.546400
      7 C6           2.1390     0.0740    -0.0620 ca         1 1A1       0.829900
      8 N1           1.4520    -1.0510    -0.1240 nb         1 1A1      -0.677000
      9 N5           1.6290     1.3060     0.0160 nb         1 1A1      -0.814000
     10 C4           0.3270     1.4680     0.0350 ca         1 1A1       0.662800
     11 N22         -0.1290     2.7750     0.1200 na         1 1A1      -0.252700
     12 C26          0.6830     3.8920     0.2000 cc         1 1A1      -0.225600
     13 C25         -0.1650     4.9460     0.2650 cd         1 1A1       0.300200
     14 N24         -1.4720     4.5200     0.2270 nd         1 1A1      -0.663000
     15 C23         -1.4250     3.2290     0.1410 cc         1 1A1       0.440400
     16 C3          -0.5210     0.3500    -0.0260 ca         1 1A1      -0.190200
     17 N13         -1.8800     0.2830    -0.0200 nc         1 1A1      -0.518100
     18 C14         -2.2900    -0.9380    -0.0890 cd         1 1A1       0.430800
     19 S15         -1.0210    -2.1480    -0.1720 ss         1 1A1      -0.101500
     20 C2           0.1460    -0.8750    -0.1040 ca         1 1A1       0.487600
     21 C16         -3.6960    -1.3210    -0.1050 ca         1 1A1      -0.243200
     22 C21         -4.6840    -0.3350    -0.1580 ca         1 1A1       0.449200
     23 N20         -5.9780    -0.6020    -0.1750 nb         1 1A1      -0.665000
     24 C19         -6.3580    -1.8760    -0.1410 ca         1 1A1       0.420200
     25 C18         -5.4620    -2.9330    -0.0890 ca         1 1A1      -0.248300
     26 C17         -4.1080    -2.6510    -0.0700 ca         1 1A1      -0.073000
     27 H1           6.0040     0.4540    -0.0850 hc         1 1A1       0.089700
     28 H2           7.5950    -1.0310     1.0920 hc         1 1A1       0.084950
     29 H3           6.3950    -2.4030     1.0400 hc         1 1A1       0.084950
     30 H4           6.3650    -2.2930    -1.4650 hc         1 1A1       0.084950
     31 H5           7.5670    -0.9210    -1.4260 hc         1 1A1       0.084950
     32 H6           3.9280     0.9750    -0.0310 hn         1 1A1       0.339500
     33 H7           1.7550     3.8250     0.2030 h4         1 1A1       0.192000
     34 H8           0.0900     5.9920     0.3370 h4         1 1A1       0.042100
     35 H9          -2.2680     2.5610     0.0900 h5         1 1A1       0.085100
     36 H10         -4.4020     0.7110    -0.1900 h4         1 1A1       0.040100
     37 H11         -7.4250    -2.0640    -0.1560 h4         1 1A1       0.024100
     38 H12         -5.8180    -3.9530    -0.0620 ha         1 1A1       0.148000
     39 H13         -3.3940    -3.4640    -0.0230 ha         1 1A1       0.142000
@<TRIPOS>BOND
     1     1     2 2   
     2     2     3 1   
     3     2     6 1   
     4     3     4 1   
     5     3     5 1   
     6     3    27 1   
     7     4     5 1   
     8     4    28 1   
     9     4    29 1   
    10     5    30 1   
    11     5    31 1   
    12     6     7 1   
    13     6    32 1   
    14     7     8 ar  
    15     7     9 ar  
    16     8    20 ar  
    17     9    10 ar  
    18    10    11 1   
    19    10    16 ar  
    20    11    12 1   
    21    11    15 1   
    22    12    13 2   
    23    12    33 1   
    24    13    14 1   
    25    13    34 1   
    26    14    15 2   
    27    15    35 1   
    28    16    17 1   
    29    16    20 ar  
    30    17    18 2   
    31    18    19 1   
    32    18    21 1   
    33    19    20 1   
    34    21    22 ar  
    35    21    26 ar  
    36    22    23 ar  
    37    22    36 1   
    38    23    24 ar  
    39    24    25 ar  
    40    24    37 1   
    41    25    26 ar  
    42    25    38 1   
    43    26    39 1   
@<TRIPOS>SUBSTRUCTURE
     1 1A1         1 TEMP              0 ****  ****    0 ROOT
