@<TRIPOS>MOLECULE
1A3
   37    39     1     0     0
SMALL
No Charge or Current Charge


@<TRIPOS>ATOM
      1 CAH         -4.7090     1.8070     0.5780 ca         1 1A3      -0.085000
      2 CAE         -6.0450     2.1340     0.2830 ca         1 1A3      -0.108000
      3 CAD         -6.6380     1.6700    -0.9030 ca         1 1A3      -0.096000
      4 CAF         -5.8940     0.8790    -1.7950 ca         1 1A3      -0.108000
      5 CAI         -4.5580     0.5520    -1.5010 ca         1 1A3      -0.085000
      6 CAR         -3.9610     1.0140    -0.3130 ca         1 1A3      -0.086300
      7 CAN         -2.5130     0.6600     0.0060 c3         1 1A3      -0.273100
      8 SAW         -2.3100    -0.8670     0.9420 s6         1 1A3       1.171100
      9 OAB         -2.8580    -0.6820     2.2870 o          1 1A3      -0.515500
     10 OAC         -2.7200    -2.0120     0.1250 o          1 1A3      -0.515500
     11 NAO         -0.6690    -1.0220     1.1760 nu         1 1A3      -0.881100
     12 CAS          0.3720    -1.0230     0.2440 ca         1 1A3       0.241000
     13 CAM          1.6610    -0.6800     0.6890 ca         1 1A3      -0.122000
     14 CAJ          0.1850    -1.3670    -1.1110 ca         1 1A3      -0.070000
     15 CAG          1.2710    -1.3540    -2.0020 ca         1 1A3      -0.094000
     16 CAK          2.5520    -1.0020    -1.5480 ca         1 1A3      -0.098000
     17 CAT          2.7600    -0.6620    -0.1960 ca         1 1A3      -0.030800
     18 CAU          4.0990    -0.3000     0.2790 cc         1 1A3       0.064400
     19 CAL          4.2870     0.6210     1.2800 cd         1 1A3      -0.197400
     20 SAQ          6.0360     0.7960     1.5500 ss         1 1A3      -0.142200
     21 CAV          6.4460    -0.4140     0.2570 c          1 1A3       0.563600
     22 OAA          7.5470    -0.7980    -0.1010 o          1 1A3      -0.496000
     23 NAP          5.2530    -0.8270    -0.2450 ns         1 1A3      -0.512600
     24 H1          -4.2580     2.1700     1.4990 ha         1 1A3       0.119500
     25 H2          -6.6200     2.7460     0.9750 ha         1 1A3       0.117500
     26 H3          -7.6710     1.9220    -1.1310 ha         1 1A3       0.115000
     27 H4          -6.3510     0.5190    -2.7150 ha         1 1A3       0.117500
     28 H5          -3.9890    -0.0610    -2.1970 ha         1 1A3       0.119500
     29 H6          -1.9380     0.5340    -0.9170 h1         1 1A3       0.095200
     30 H7          -2.0460     1.4480     0.6070 h1         1 1A3       0.095200
     31 H8          -0.4830    -0.6610     2.1030 hn         1 1A3       0.490000
     32 H9           1.8090    -0.4350     1.7360 ha         1 1A3       0.119000
     33 H10         -0.7920    -1.6520    -1.4860 ha         1 1A3       0.151000
     34 H11          1.1190    -1.6170    -3.0470 ha         1 1A3       0.128000
     35 H12          3.3790    -0.9860    -2.2530 ha         1 1A3       0.121000
     36 H13          3.5570     1.1930     1.8420 h4         1 1A3       0.229000
     37 H14          5.2600    -1.5280    -0.9780 hn         1 1A3       0.458000
@<TRIPOS>BOND
     1     1     2 ar  
     2     1     6 ar  
     3     1    24 1   
     4     2     3 ar  
     5     2    25 1   
     6     3     4 ar  
     7     3    26 1   
     8     4     5 ar  
     9     4    27 1   
    10     5     6 ar  
    11     5    28 1   
    12     6     7 1   
    13     7     8 1   
    14     7    29 1   
    15     7    30 1   
    16     8     9 2   
    17     8    10 2   
    18     8    11 1   
    19    11    12 1   
    20    11    31 1   
    21    12    13 ar  
    22    12    14 ar  
    23    13    17 ar  
    24    13    32 1   
    25    14    15 ar  
    26    14    33 1   
    27    15    16 ar  
    28    15    34 1   
    29    16    17 ar  
    30    16    35 1   
    31    17    18 1   
    32    18    19 2   
    33    18    23 1   
    34    19    20 1   
    35    19    36 1   
    36    20    21 1   
    37    21    22 2   
    38    21    23 1   
    39    23    37 1   
@<TRIPOS>SUBSTRUCTURE
     1 1A3         1 TEMP              0 ****  ****    0 ROOT
