@<TRIPOS>MOLECULE
1A3
   37    39     1     0     0
SMALL
abcg2


@<TRIPOS>ATOM
      1 CAH         -4.4050     1.6000     0.9090 ca         1 1A3      -0.085000
      2 CAE         -5.5980     2.1570     0.4720 ca         1 1A3      -0.108000
      3 CAD         -5.8530     2.2760    -0.8880 ca         1 1A3      -0.096000
      4 CAF         -4.9100     1.8380    -1.8090 ca         1 1A3      -0.108000
      5 CAI         -3.7170     1.2810    -1.3720 ca         1 1A3      -0.085000
      6 CAR         -3.4540     1.1650    -0.0100 ca         1 1A3      -0.086300
      7 CAN         -2.1750     0.5500     0.4630 c3         1 1A3      -0.273100
      8 SAW         -2.4010    -1.2260     0.6620 s6         1 1A3       1.171100
      9 OAB         -3.3050    -1.4560     1.7750 o          1 1A3      -0.515500
     10 OAC         -2.6980    -1.7920    -0.6410 o          1 1A3      -0.515500
     11 NAO         -0.9250    -1.8230     1.1460 nu         1 1A3      -0.881100
     12 CAS          0.1860    -1.7670     0.2680 ca         1 1A3       0.241000
     13 CAM          1.2280    -0.8880     0.5310 ca         1 1A3      -0.122000
     14 CAJ          0.2550    -2.6280    -0.8230 ca         1 1A3      -0.070000
     15 CAG          1.3660    -2.5870    -1.6490 ca         1 1A3      -0.094000
     16 CAK          2.4120    -1.7140    -1.3920 ca         1 1A3      -0.098000
     17 CAT          2.3510    -0.8560    -0.2940 ca         1 1A3      -0.030800
     18 CAU          3.4270     0.0940    -0.0110 cc         1 1A3       0.064400
     19 CAL          3.3070     1.3010     0.5690 cd         1 1A3      -0.197400
     20 SAQ          4.8360     2.1130     0.6810 ss         1 1A3      -0.142200
     21 CAV          5.6710     0.7510    -0.0960 c          1 1A3       0.563600
     22 OAA          6.8590     0.6920    -0.3170 o          1 1A3      -0.496000
     23 NAP          4.7310    -0.1900    -0.3750 ns         1 1A3      -0.512600
     24 H1          -4.2070     1.5130     1.9700 ha         1 1A3       0.119500
     25 H2          -6.3290     2.4980     1.1940 ha         1 1A3       0.117500
     26 H3          -6.7820     2.7130    -1.2300 ha         1 1A3       0.115000
     27 H4          -5.1040     1.9310    -2.8700 ha         1 1A3       0.117500
     28 H5          -2.9820     0.9460    -2.0940 ha         1 1A3       0.119500
     29 H6          -1.3620     0.6900    -0.2520 h1         1 1A3       0.095200
     30 H7          -1.8590     0.9360     1.4340 h1         1 1A3       0.095200
     31 H8          -0.7210    -1.5760     2.1100 hn         1 1A3       0.490000
     32 H9           1.1720    -0.2410     1.3980 ha         1 1A3       0.119000
     33 H10         -0.5400    -3.3360    -1.0100 ha         1 1A3       0.151000
     34 H11          1.4230    -3.2520    -2.5000 ha         1 1A3       0.128000
     35 H12          3.2620    -1.6950    -2.0610 ha         1 1A3       0.121000
     36 H13          2.3980     1.7760     0.9010 h4         1 1A3       0.229000
     37 H14          5.0130    -1.0760    -0.7720 hn         1 1A3       0.458000
@<TRIPOS>BOND
     1     1     2 ar  
     2     1     6 ar  
     3     1    24 1   
     4     2     3 ar  
     5     2    25 1   
     6     3     4 ar  
     7     3    26 1   
     8     4     5 ar  
     9     4    27 1   
    10     5     6 ar  
    11     5    28 1   
    12     6     7 1   
    13     7     8 1   
    14     7    29 1   
    15     7    30 1   
    16     8     9 2   
    17     8    10 2   
    18     8    11 1   
    19    11    12 1   
    20    11    31 1   
    21    12    13 ar  
    22    12    14 ar  
    23    13    17 ar  
    24    13    32 1   
    25    14    15 ar  
    26    14    33 1   
    27    15    16 ar  
    28    15    34 1   
    29    16    17 ar  
    30    16    35 1   
    31    17    18 1   
    32    18    19 2   
    33    18    23 1   
    34    19    20 1   
    35    19    36 1   
    36    20    21 1   
    37    21    22 2   
    38    21    23 1   
    39    23    37 1   
@<TRIPOS>SUBSTRUCTURE
     1 1A3         1 TEMP              0 ****  ****    0 ROOT
