@<TRIPOS>MOLECULE
1A4
   31    33     1     0     0
SMALL
No Charge or Current Charge


@<TRIPOS>ATOM
      1 CAI         -2.7280     1.6120    -0.8260 cc         1 1A4      -0.002000
      2 CAD         -2.5910     2.7050     0.0630 cc         1 1A4      -0.162000
      3 CAF         -2.8510     2.3850     1.3720 cd         1 1A4      -0.227000
      4 SAN         -3.2920     0.6750     1.5460 ss         1 1A4       0.378000
      5 CAS         -3.0920     0.4510    -0.1920 cd         1 1A4      -0.497500
      6 SAU         -3.3560    -1.1160    -0.9410 sy         1 1A4       1.184600
      7 OAB         -3.8980    -2.0910     0.0080 o          1 1A4      -0.526000
      8 OAC         -3.8300    -0.9670    -2.3170 o          1 1A4      -0.526000
      9 NAL         -1.7390    -1.5190    -1.1340 nu         1 1A4      -0.861100
     10 CAP         -0.7040    -1.3720    -0.2090 ca         1 1A4       0.222000
     11 CAK          0.5080    -0.7950    -0.6270 ca         1 1A4      -0.111000
     12 CAG         -0.8380    -1.8050     1.1240 ca         1 1A4      -0.055000
     13 CAE          0.2230    -1.6430     2.0300 ca         1 1A4      -0.101000
     14 CAH          1.4250    -1.0530     1.6090 ca         1 1A4      -0.092000
     15 CAQ          1.5800    -0.6230     0.2750 ca         1 1A4      -0.038800
     16 CAR          2.8360    -0.0100    -0.1640 cc         1 1A4       0.065400
     17 CAJ          2.8630     0.9820    -1.1140 cd         1 1A4      -0.199400
     18 SAO          4.5550     1.4740    -1.3530 ss         1 1A4      -0.148200
     19 CAT          5.1670     0.2870    -0.1190 c          1 1A4       0.564600
     20 OAA          6.3160     0.0820     0.2330 o          1 1A4      -0.495000
     21 NAM          4.0630    -0.3550     0.3460 ns         1 1A4      -0.512600
     22 H1          -2.5550     1.7050    -1.8960 ha         1 1A4       0.146000
     23 H2          -2.3040     3.6950    -0.2790 ha         1 1A4       0.142000
     24 H3          -2.8180     3.0270     2.2430 h4         1 1A4       0.156000
     25 H4          -1.5370    -1.2000    -2.0700 hn         1 1A4       0.487000
     26 H5           0.6160    -0.4800    -1.6600 ha         1 1A4       0.123000
     27 H6          -1.7560    -2.2760     1.4590 ha         1 1A4       0.147000
     28 H7           0.1120    -1.9760     3.0600 ha         1 1A4       0.128000
     29 H8           2.2320    -0.9230     2.3260 ha         1 1A4       0.120000
     30 H9           2.0450     1.4470    -1.6540 h4         1 1A4       0.231000
     31 H10          4.1900    -1.0810     1.0420 hn         1 1A4       0.458000
@<TRIPOS>BOND
     1     1     2 1   
     2     1     5 2   
     3     1    22 1   
     4     2     3 2   
     5     2    23 1   
     6     3     4 1   
     7     3    24 1   
     8     4     5 1   
     9     5     6 1   
    10     6     7 2   
    11     6     8 2   
    12     6     9 1   
    13     9    10 1   
    14     9    25 1   
    15    10    11 ar  
    16    10    12 ar  
    17    11    15 ar  
    18    11    26 1   
    19    12    13 ar  
    20    12    27 1   
    21    13    14 ar  
    22    13    28 1   
    23    14    15 ar  
    24    14    29 1   
    25    15    16 1   
    26    16    17 2   
    27    16    21 1   
    28    17    18 1   
    29    17    30 1   
    30    18    19 1   
    31    19    20 2   
    32    19    21 1   
    33    21    31 1   
@<TRIPOS>SUBSTRUCTURE
     1 1A4         1 TEMP              0 ****  ****    0 ROOT
