@<TRIPOS>MOLECULE
1A4
   31    33     1     0     0
SMALL
abcg2


@<TRIPOS>ATOM
      1 CAI         -2.4750     1.6500    -1.2900 cc         1 1A4      -0.002000
      2 CAD         -1.8490     2.8260    -0.8150 cc         1 1A4      -0.162000
      3 CAF         -1.6050     2.7810     0.5290 cd         1 1A4      -0.227000
      4 SAN         -2.1300     1.3210     1.2360 ss         1 1A4       0.378000
      5 CAS         -2.6910     0.7540    -0.2820 cd         1 1A4      -0.497500
      6 SAU         -3.2940    -0.8750    -0.4450 sy         1 1A4       1.184600
      7 OAB         -3.6280    -1.3250     0.8920 o          1 1A4      -0.526000
      8 OAC         -4.2620    -0.9140    -1.5210 o          1 1A4      -0.526000
      9 NAL         -2.0050    -1.7940    -0.9610 nu         1 1A4      -0.861100
     10 CAP         -0.8430    -1.7720    -0.1400 ca         1 1A4       0.222000
     11 CAK          0.1710    -0.8610    -0.3950 ca         1 1A4      -0.111000
     12 CAG         -0.7400    -2.6600     0.9230 ca         1 1A4      -0.055000
     13 CAE          0.3900    -2.6290     1.7260 ca         1 1A4      -0.101000
     14 CAH          1.4050    -1.7160     1.4810 ca         1 1A4      -0.092000
     15 CAQ          1.2990    -0.8180     0.4190 ca         1 1A4      -0.038800
     16 CAR          2.3210     0.1990     0.1750 cc         1 1A4       0.065400
     17 CAJ          2.1170     1.4430    -0.2920 cd         1 1A4      -0.199400
     18 SAO          3.6000     2.3410    -0.3910 ss         1 1A4      -0.148200
     19 CAT          4.5310     0.9640     0.2360 c          1 1A4       0.564600
     20 OAA          5.7280     0.9480     0.4070 o          1 1A4      -0.495000
     21 NAM          3.6500    -0.0460     0.4690 ns         1 1A4      -0.512600
     22 H1          -2.7460     1.4780    -2.3220 ha         1 1A4       0.146000
     23 H2          -1.5950     3.6690    -1.4400 ha         1 1A4       0.142000
     24 H3          -1.1530     3.5450     1.1430 h4         1 1A4       0.156000
     25 H4          -1.8190    -1.6370    -1.9470 hn         1 1A4       0.487000
     26 H5           0.0860    -0.1870    -1.2390 ha         1 1A4       0.123000
     27 H6          -1.5280    -3.3770     1.1070 ha         1 1A4       0.147000
     28 H7           0.4790    -3.3190     2.5540 ha         1 1A4       0.128000
     29 H8           2.2660    -1.6940     2.1370 ha         1 1A4       0.120000
     30 H9           1.1720     1.8970    -0.5450 h4         1 1A4       0.231000
     31 H10          3.9900    -0.9490     0.7680 hn         1 1A4       0.458000
@<TRIPOS>BOND
     1     1     2 1   
     2     1     5 2   
     3     1    22 1   
     4     2     3 2   
     5     2    23 1   
     6     3     4 1   
     7     3    24 1   
     8     4     5 1   
     9     5     6 1   
    10     6     7 2   
    11     6     8 2   
    12     6     9 1   
    13     9    10 1   
    14     9    25 1   
    15    10    11 ar  
    16    10    12 ar  
    17    11    15 ar  
    18    11    26 1   
    19    12    13 ar  
    20    12    27 1   
    21    13    14 ar  
    22    13    28 1   
    23    14    15 ar  
    24    14    29 1   
    25    15    16 1   
    26    16    17 2   
    27    16    21 1   
    28    17    18 1   
    29    17    30 1   
    30    18    19 1   
    31    19    20 2   
    32    19    21 1   
    33    21    31 1   
@<TRIPOS>SUBSTRUCTURE
     1 1A4         1 TEMP              0 ****  ****    0 ROOT
