@<TRIPOS>MOLECULE
1A5
   25    26     1     0     0
SMALL
abcg2


@<TRIPOS>ATOM
      1 OAC         -2.5780     2.0240     0.1630 o          1 1A5      -0.514000
      2 CAL         -2.7970     0.8440     0.0670 c          1 1A5       0.707100
      3 OAJ         -4.0390     0.3660     0.0010 os         1 1A5      -0.406100
      4 CAH         -4.0490    -1.0560    -0.1200 c5         1 1A5       0.144600
      5 CAI         -2.5770    -1.4710    -0.0850 c5         1 1A5       0.061000
      6 NAO         -1.9020    -0.1890     0.0100 n          1 1A5      -0.254400
      7 CAN         -0.5110    -0.0920     0.0310 ca         1 1A5       0.024000
      8 CAF          0.2390    -1.2730     0.0390 ca         1 1A5      -0.165000
      9 CAD          1.6210    -1.2320     0.0590 ca         1 1A5      -0.041500
     10 CAM          2.3060    -0.0220     0.0540 ca         1 1A5      -0.181600
     11 CAK          3.7980    -0.0470     0.0840 c          1 1A5       0.621700
     12 OAB          4.4040    -1.0490     0.4430 o          1 1A5      -0.609100
     13 NAA          4.4260     1.0780    -0.2930 nt         1 1A5      -0.603000
     14 CAE          1.5550     1.1510     0.0490 ca         1 1A5      -0.041500
     15 CAG          0.1720     1.1290     0.0400 ca         1 1A5      -0.165000
     16 H1          -4.6170    -1.4740     0.7070 h1         1 1A5       0.071700
     17 H2          -4.5340    -1.3260    -1.0570 h1         1 1A5       0.071700
     18 H3          -2.3530    -2.1020     0.7760 h1         1 1A5       0.066700
     19 H4          -2.2780    -2.0030    -0.9890 h1         1 1A5       0.066700
     20 H5          -0.2430    -2.2400     0.0330 ha         1 1A5       0.134000
     21 H6           2.1700    -2.1630     0.0720 ha         1 1A5       0.125000
     22 H7           5.4320     1.1020    -0.3110 hn         1 1A5       0.313500
     23 H8           3.9470     1.8490    -0.7230 hn         1 1A5       0.313500
     24 H9           2.0350     2.1210     0.0720 ha         1 1A5       0.125000
     25 H10         -0.3610     2.0640     0.0450 ha         1 1A5       0.134000
@<TRIPOS>BOND
     1     1     2 2   
     2     2     3 1   
     3     2     6 1   
     4     3     4 1   
     5     4     5 1   
     6     4    16 1   
     7     4    17 1   
     8     5     6 1   
     9     5    18 1   
    10     5    19 1   
    11     6     7 1   
    12     7     8 ar  
    13     7    15 ar  
    14     8     9 ar  
    15     8    20 1   
    16     9    10 ar  
    17     9    21 1   
    18    10    11 1   
    19    10    14 ar  
    20    11    12 2   
    21    11    13 1   
    22    13    22 1   
    23    13    23 1   
    24    14    15 ar  
    25    14    24 1   
    26    15    25 1   
@<TRIPOS>SUBSTRUCTURE
     1 1A5         1 TEMP              0 ****  ****    0 ROOT
