@<TRIPOS>MOLECULE
1A5
   25    26     1     0     0
SMALL
No Charge or Current Charge


@<TRIPOS>ATOM
      1 OAC         -2.4390     1.8800     0.8260 o          1 1A5      -0.514000
      2 CAL         -2.7790     0.7810     0.4120 c          1 1A5       0.707100
      3 OAJ         -4.0660     0.3310     0.4150 os         1 1A5      -0.406100
      4 CAH         -4.1260    -0.9550    -0.2450 c5         1 1A5       0.144600
      5 CAI         -2.6820    -1.5150    -0.1900 c5         1 1A5       0.061000
      6 NAO         -1.9320    -0.2730     0.0400 n          1 1A5      -0.254400
      7 CAN         -0.4970    -0.2090    -0.0830 ca         1 1A5       0.024000
      8 CAF          0.2820    -1.3040     0.3400 ca         1 1A5      -0.165000
      9 CAD          1.6850    -1.2270     0.3710 ca         1 1A5      -0.041500
     10 CAM          2.3500    -0.0330     0.0230 ca         1 1A5      -0.181600
     11 CAK          3.8610     0.0190     0.0630 c          1 1A5       0.621700
     12 OAB          4.5460    -0.9380     0.3860 o          1 1A5      -0.609100
     13 NAA          4.4730     1.1750    -0.2720 nt         1 1A5      -0.603000
     14 CAE          1.5690     1.0880    -0.3370 ca         1 1A5      -0.041500
     15 CAG          0.1660     1.0040    -0.3630 ca         1 1A5      -0.165000
     16 H1          -4.8610    -1.6040     0.2480 h1         1 1A5       0.071700
     17 H2          -4.4400    -0.7960    -1.2860 h1         1 1A5       0.071700
     18 H3          -2.5560    -2.2170     0.6450 h1         1 1A5       0.066700
     19 H4          -2.3910    -2.0120    -1.1250 h1         1 1A5       0.066700
     20 H5          -0.1940    -2.2320     0.6470 ha         1 1A5       0.134000
     21 H6           2.2540    -2.1020     0.6790 ha         1 1A5       0.125000
     22 H7           5.4810     1.2210    -0.2490 hn         1 1A5       0.313500
     23 H8           3.9300     1.9790    -0.5440 hn         1 1A5       0.313500
     24 H9           2.0320     2.0390    -0.5920 ha         1 1A5       0.125000
     25 H10         -0.4000     1.8890    -0.6420 ha         1 1A5       0.134000
@<TRIPOS>BOND
     1     1     2 2   
     2     2     3 1   
     3     2     6 1   
     4     3     4 1   
     5     4     5 1   
     6     4    16 1   
     7     4    17 1   
     8     5     6 1   
     9     5    18 1   
    10     5    19 1   
    11     6     7 1   
    12     7     8 ar  
    13     7    15 ar  
    14     8     9 ar  
    15     8    20 1   
    16     9    10 ar  
    17     9    21 1   
    18    10    11 1   
    19    10    14 ar  
    20    11    12 2   
    21    11    13 1   
    22    13    22 1   
    23    13    23 1   
    24    14    15 ar  
    25    14    24 1   
    26    15    25 1   
@<TRIPOS>SUBSTRUCTURE
     1 1A5         1 TEMP              0 ****  ****    0 ROOT
