@<TRIPOS>MOLECULE
1A6
   27    29     1     0     0
SMALL
No Charge or Current Charge


@<TRIPOS>ATOM
      1 CAA          5.9840     0.9710     0.9730 c3         1 1A6      -0.133400
      2 CAM          4.8590     0.2870     0.2540 cc         1 1A6       0.275300
      3 CAF          3.5840     0.1330     0.8180 cc         1 1A6      -0.222000
      4 NAJ          4.9640    -0.2270    -0.9600 nd         1 1A6      -0.354300
      5 OAK          3.6490    -0.7630    -1.2190 os         1 1A6      -0.064700
      6 CAN          2.8620    -0.5210    -0.1230 cd         1 1A6       0.169300
      7 CAG          1.4280    -0.9750    -0.1210 c3         1 1A6       0.023300
      8 SAL          0.2180     0.4210    -0.0190 ss         1 1A6      -0.205200
      9 CAO         -1.3280    -0.4250    -0.0290 cc         1 1A6       0.321700
     10 NAH         -1.5080    -1.7350    -0.0940 nd         1 1A6      -0.367700
     11 NAI         -2.8900    -1.9590    -0.0750 nd         1 1A6      -0.086000
     12 CAP         -3.4990    -0.7820     0.0020 cc         1 1A6      -0.098000
     13 NAQ         -2.5430     0.1780     0.0310 na         1 1A6       0.027200
     14 CAE         -2.7800     1.5550     0.1090 cc         1 1A6      -0.086000
     15 CAC         -4.1360     1.8890     0.1580 cd         1 1A6      -0.144000
     16 CAB         -5.1990     0.9050     0.1300 cd         1 1A6      -0.090000
     17 CAD         -4.8750    -0.4310     0.0520 cc         1 1A6      -0.075000
     18 H1           6.2100     0.4570     1.9140 hc         1 1A6       0.058033
     19 H2           6.8970     0.9830     0.3650 hc         1 1A6       0.058033
     20 H3           5.7190     2.0090     1.2060 hc         1 1A6       0.058033
     21 H4           3.2620     0.4730     1.7960 ha         1 1A6       0.157000
     22 H5           1.2310    -1.5480    -1.0350 h1         1 1A6       0.105700
     23 H6           1.2720    -1.6420     0.7350 h1         1 1A6       0.105700
     24 H7          -1.9440     2.2430     0.1260 h4         1 1A6       0.157000
     25 H8          -4.4050     2.9390     0.2200 ha         1 1A6       0.136000
     26 H9          -6.2380     1.2150     0.1700 ha         1 1A6       0.128000
     27 H10         -5.6370    -1.2050     0.0280 ha         1 1A6       0.148000
@<TRIPOS>BOND
     1     1     2 1   
     2     1    18 1   
     3     1    19 1   
     4     1    20 1   
     5     2     3 1   
     6     2     4 2   
     7     3     6 2   
     8     3    21 1   
     9     4     5 1   
    10     5     6 1   
    11     6     7 1   
    12     7     8 1   
    13     7    22 1   
    14     7    23 1   
    15     8     9 1   
    16     9    10 2   
    17     9    13 1   
    18    10    11 1   
    19    11    12 2   
    20    12    13 1   
    21    12    17 1   
    22    13    14 1   
    23    14    15 2   
    24    14    24 1   
    25    15    16 1   
    26    15    25 1   
    27    16    17 2   
    28    16    26 1   
    29    17    27 1   
@<TRIPOS>SUBSTRUCTURE
     1 1A6         1 TEMP              0 ****  ****    0 ROOT
