@<TRIPOS>MOLECULE
1A6
   27    29     1     0     0
SMALL
abcg2


@<TRIPOS>ATOM
      1 CAA          6.1060     0.8000     0.8170 c3         1 1A6      -0.133400
      2 CAM          4.7760     0.3900     0.2950 cc         1 1A6       0.275300
      3 CAF          3.6940    -0.1840     1.0170 cc         1 1A6      -0.222000
      4 NAJ          4.4640     0.5380    -0.9600 nd         1 1A6      -0.354300
      5 OAK          3.1910     0.0720    -1.1030 os         1 1A6      -0.064700
      6 CAN          2.7390    -0.3590     0.0780 cd         1 1A6       0.169300
      7 CAG          1.3630    -0.8990     0.1360 c3         1 1A6       0.023300
      8 SAL          0.2020     0.4940    -0.0920 ss         1 1A6      -0.205200
      9 CAO         -1.2940    -0.3850     0.0120 cc         1 1A6       0.321700
     10 NAH         -1.4680    -1.6710     0.1320 nd         1 1A6      -0.367700
     11 NAI         -2.7900    -1.9330     0.1770 nd         1 1A6      -0.086000
     12 CAP         -3.4220    -0.7860     0.0820 cc         1 1A6      -0.098000
     13 NAQ         -2.5040     0.2390    -0.0250 na         1 1A6       0.027200
     14 CAE         -2.8610     1.5580    -0.1350 cc         1 1A6      -0.086000
     15 CAC         -4.1750     1.8660    -0.1410 cd         1 1A6      -0.144000
     16 CAB         -5.1610     0.8400    -0.0350 cd         1 1A6      -0.090000
     17 CAD         -4.8000    -0.4660     0.0740 cc         1 1A6      -0.075000
     18 H1           6.6280    -0.0550     1.2470 hc         1 1A6       0.058033
     19 H2           6.7240     1.2230     0.0280 hc         1 1A6       0.058033
     20 H3           5.9930     1.5430     1.6050 hc         1 1A6       0.058033
     21 H4           3.6460    -0.4210     2.0660 ha         1 1A6       0.157000
     22 H5           1.1900    -1.6390    -0.6450 h1         1 1A6       0.105700
     23 H6           1.1870    -1.3590     1.1060 h1         1 1A6       0.105700
     24 H7          -2.0670     2.2870    -0.2110 h4         1 1A6       0.157000
     25 H8          -4.4710     2.9010    -0.2270 ha         1 1A6       0.136000
     26 H9          -6.2070     1.1120    -0.0440 ha         1 1A6       0.128000
     27 H10         -5.5260    -1.2620     0.1550 ha         1 1A6       0.148000
@<TRIPOS>BOND
     1     1     2 1   
     2     1    18 1   
     3     1    19 1   
     4     1    20 1   
     5     2     3 1   
     6     2     4 2   
     7     3     6 2   
     8     3    21 1   
     9     4     5 1   
    10     5     6 1   
    11     6     7 1   
    12     7     8 1   
    13     7    22 1   
    14     7    23 1   
    15     8     9 1   
    16     9    10 2   
    17     9    13 1   
    18    10    11 1   
    19    11    12 2   
    20    12    13 1   
    21    12    17 1   
    22    13    14 1   
    23    14    15 2   
    24    14    24 1   
    25    15    16 1   
    26    15    25 1   
    27    16    17 2   
    28    16    26 1   
    29    17    27 1   
@<TRIPOS>SUBSTRUCTURE
     1 1A6         1 TEMP              0 ****  ****    0 ROOT
