@<TRIPOS>MOLECULE
1A7
   19    20     1     0     0
SMALL
bcc


@<TRIPOS>ATOM
      1 FAB          1.4790    -2.0090     0.5510 f          1 1A7      -0.133900
      2 CAJ          1.9370    -0.7840     0.2580 ca         1 1A7       0.160900
      3 CAE          3.3010    -0.5770     0.2740 ca         1 1A7      -0.169000
      4 CAC          3.7930     0.6880    -0.0100 ca         1 1A7      -0.089000
      5 CAD          2.9170     1.7240    -0.3030 ca         1 1A7      -0.142000
      6 CAF          1.5510     1.4930    -0.3130 ca         1 1A7      -0.095000
      7 CAL          1.0270     0.2270    -0.0350 ca         1 1A7      -0.086800
      8 CAK         -0.4180    -0.0050    -0.0450 cc         1 1A7       0.064400
      9 CAG         -1.0900    -1.0950    -0.4550 cd         1 1A7      -0.127400
     10 SAI         -2.8070    -0.8660    -0.3510 ss         1 1A7      -0.148200
     11 CAM         -2.6010     0.7790     0.2840 c          1 1A7       0.705100
     12 OAA         -3.4990     1.5270     0.5980 o          1 1A7      -0.577500
     13 NAH         -1.2660     1.0160     0.3540 ns         1 1A7      -0.468100
     14 H1           3.9660    -1.3970     0.5130 ha         1 1A7       0.155000
     15 H2           4.8610     0.8600    -0.0020 ha         1 1A7       0.141000
     16 H3           3.2940     2.7120    -0.5300 ha         1 1A7       0.142000
     17 H4           0.8820     2.3070    -0.5600 ha         1 1A7       0.138000
     18 H5          -0.6830    -2.0090    -0.8520 h4         1 1A7       0.188000
     19 H6          -0.9330     1.8840     0.7510 hn         1 1A7       0.341500
@<TRIPOS>BOND
     1     1     2 1   
     2     2     3 ar  
     3     2     7 ar  
     4     3     4 ar  
     5     3    14 1   
     6     4     5 ar  
     7     4    15 1   
     8     5     6 ar  
     9     5    16 1   
    10     6     7 ar  
    11     6    17 1   
    12     7     8 1   
    13     8     9 2   
    14     8    13 1   
    15     9    10 1   
    16     9    18 1   
    17    10    11 1   
    18    11    12 2   
    19    11    13 1   
    20    13    19 1   
@<TRIPOS>SUBSTRUCTURE
     1 1A7         1 TEMP              0 ****  ****    0 ROOT
