@<TRIPOS>MOLECULE
1A7
   19    20     1     0     0
SMALL
No Charge or Current Charge


@<TRIPOS>ATOM
      1 FAB          1.4270    -2.0080     0.7030 f          1 1A7      -0.169000
      2 CAJ          1.9000    -0.7960     0.3320 ca         1 1A7       0.196000
      3 CAE          3.2890    -0.5870     0.3340 ca         1 1A7      -0.151000
      4 CAC          3.8150     0.6660    -0.0210 ca         1 1A7      -0.071000
      5 CAD          2.9450     1.7100    -0.3760 ca         1 1A7      -0.124000
      6 CAF          1.5540     1.5040    -0.3770 ca         1 1A7      -0.077000
      7 CAL          1.0140     0.2470    -0.0270 ca         1 1A7      -0.086800
      8 CAK         -0.4370     0.0590    -0.0380 cc         1 1A7       0.064400
      9 CAG         -1.0230    -1.0550    -0.5860 cd         1 1A7      -0.177400
     10 SAI         -2.7870    -0.8770    -0.4470 ss         1 1A7      -0.148200
     11 CAM         -2.6470     0.7500     0.3520 c          1 1A7       0.562600
     12 OAA         -3.5400     1.4840     0.7390 o          1 1A7      -0.502000
     13 NAH         -1.3140     0.9990     0.4390 ns         1 1A7      -0.514600
     14 H1           3.9560    -1.3980     0.6160 ha         1 1A7       0.137000
     15 H2           4.8910     0.8280    -0.0200 ha         1 1A7       0.123000
     16 H3           3.3500     2.6820    -0.6520 ha         1 1A7       0.124000
     17 H4           0.8960     2.3210    -0.6640 ha         1 1A7       0.120000
     18 H5          -0.5620    -1.9220    -1.0500 h4         1 1A7       0.238000
     19 H6          -1.0160     1.8670     0.8710 hn         1 1A7       0.455000
@<TRIPOS>BOND
     1     1     2 1   
     2     2     3 ar  
     3     2     7 ar  
     4     3     4 ar  
     5     3    14 1   
     6     4     5 ar  
     7     4    15 1   
     8     5     6 ar  
     9     5    16 1   
    10     6     7 ar  
    11     6    17 1   
    12     7     8 1   
    13     8     9 2   
    14     8    13 1   
    15     9    10 1   
    16     9    18 1   
    17    10    11 1   
    18    11    12 2   
    19    11    13 1   
    20    13    19 1   
@<TRIPOS>SUBSTRUCTURE
     1 1A7         1 TEMP              0 ****  ****    0 ROOT
