@<TRIPOS>MOLECULE
1A8
   44    46     1     0     0
SMALL
No Charge or Current Charge


@<TRIPOS>ATOM
      1 CAA         -3.8310     5.6100    -1.9890 c3         1 1A8      -0.093100
      2 CAM         -3.4170     4.1960    -1.5380 c3         1 1A8      -0.064400
      3 CAN         -2.7650     4.1770    -0.1340 c3         1 1A8      -0.158400
      4 CAT         -2.3640     2.7560     0.2860 c          1 1A8       0.606100
      5 OAB         -3.2020     1.9280     0.6210 o          1 1A8      -0.553100
      6 NAO         -0.9970     2.5160     0.2650 ns         1 1A8      -0.155000
      7 CAU         -0.2290     1.3700     0.6050 ca         1 1A8       0.005000
      8 CAJ         -0.7540     0.2670     1.3100 ca         1 1A8      -0.096000
      9 CAK          1.1260     1.3560     0.2290 ca         1 1A8      -0.167000
     10 CAW          1.9560     0.2600     0.5360 ca         1 1A8       0.005200
     11 CAX          3.3670     0.2630     0.1330 cc         1 1A8       0.069400
     12 CAI          4.3340    -0.3680     0.8780 cd         1 1A8      -0.195400
     13 SAS          5.9020    -0.1200     0.0750 ss         1 1A8      -0.138200
     14 CAZ          5.1590     0.8570    -1.2660 c          1 1A8       0.561600
     15 OAC          5.7100     1.3710    -2.2250 o          1 1A8      -0.499000
     16 NAQ          3.8300     0.9040    -0.9890 ns         1 1A8      -0.514600
     17 CAL          1.4050    -0.8390     1.2240 ca         1 1A8      -0.148000
     18 CAV          0.0540    -0.8450     1.6020 ca         1 1A8       0.259000
     19 NAP         -0.4480    -1.9530     2.2780 nu         1 1A8      -0.863100
     20 SBA         -1.9240    -2.7130     2.0520 sy         1 1A8       1.184600
     21 OAD         -1.6320    -4.1100     2.3760 o          1 1A8      -0.523000
     22 OAE         -2.9030    -1.9010     2.7760 o          1 1A8      -0.523000
     23 CAY         -2.1400    -2.5390     0.3080 cc         1 1A8      -0.497500
     24 SAR         -3.3610    -1.4680    -0.3490 ss         1 1A8       0.371000
     25 CAG         -2.8750    -1.8890    -1.9890 cc         1 1A8      -0.222000
     26 CAF         -1.8490    -2.8020    -1.9840 cd         1 1A8      -0.158000
     27 CAH         -1.4300    -3.1750    -0.6800 cd         1 1A8      -0.001000
     28 H1          -4.2880     5.5750    -2.9860 hc         1 1A8       0.034700
     29 H2          -4.5600     6.0420    -1.2930 hc         1 1A8       0.034700
     30 H3          -2.9600     6.2740    -2.0350 hc         1 1A8       0.034700
     31 H4          -4.3030     3.5480    -1.5390 hc         1 1A8       0.058700
     32 H5          -2.7160     3.7780    -2.2720 hc         1 1A8       0.058700
     33 H6          -1.8810     4.8270    -0.1510 hc         1 1A8       0.058200
     34 H7          -3.4920     4.5620     0.5910 hc         1 1A8       0.058200
     35 H8          -0.4430     3.2990    -0.0580 hn         1 1A8       0.149000
     36 H9          -1.7810     0.2640     1.6510 ha         1 1A8       0.181000
     37 H10          1.5380     2.2140    -0.2960 ha         1 1A8       0.107000
     38 H11          4.2440    -0.9230     1.8060 h4         1 1A8       0.230000
     39 H12          2.0240    -1.7010     1.4520 ha         1 1A8       0.122000
     40 H13          0.1960    -2.7200     2.4070 hn         1 1A8       0.487000
     41 H14         -3.3860    -1.4330    -2.8270 h4         1 1A8       0.154000
     42 H15         -1.3990    -3.2000    -2.8890 ha         1 1A8       0.140000
     43 H16         -0.6280    -3.8850    -0.4880 ha         1 1A8       0.146000
     44 H17          3.2230     1.3980    -1.6340 hn         1 1A8       0.454000
@<TRIPOS>BOND
     1     1     2 1   
     2     1    28 1   
     3     1    29 1   
     4     1    30 1   
     5     2     3 1   
     6     2    31 1   
     7     2    32 1   
     8     3     4 1   
     9     3    33 1   
    10     3    34 1   
    11     4     5 2   
    12     4     6 1   
    13     6     7 1   
    14     6    35 1   
    15     7     8 ar  
    16     7     9 ar  
    17     8    18 ar  
    18     8    36 1   
    19     9    10 ar  
    20     9    37 1   
    21    10    11 1   
    22    10    17 ar  
    23    11    12 2   
    24    11    16 1   
    25    12    13 1   
    26    12    38 1   
    27    13    14 1   
    28    14    15 2   
    29    14    16 1   
    30    16    44 1   
    31    17    18 ar  
    32    17    39 1   
    33    18    19 1   
    34    19    20 1   
    35    19    40 1   
    36    20    21 2   
    37    20    22 2   
    38    20    23 1   
    39    23    24 1   
    40    23    27 2   
    41    24    25 1   
    42    25    26 2   
    43    25    41 1   
    44    26    27 1   
    45    26    42 1   
    46    27    43 1   
@<TRIPOS>SUBSTRUCTURE
     1 1A8         1 TEMP              0 ****  ****    0 ROOT
