@<TRIPOS>MOLECULE
1A8
   44    46     1     0     0
SMALL
bcc


@<TRIPOS>ATOM
      1 CAA         -4.1910     6.6840    -0.7540 c3         1 1A8      -0.093100
      2 CAM         -4.0470     5.2650    -0.2230 c3         1 1A8      -0.064400
      3 CAN         -2.6350     4.7370    -0.4170 c3         1 1A8      -0.158400
      4 CAT         -2.4250     3.3360     0.1120 c          1 1A8       0.673100
      5 OAB         -3.2700     2.7260     0.7390 o          1 1A8      -0.553100
      6 NAO         -1.1890     2.8330    -0.1730 ns         1 1A8      -0.481100
      7 CAU         -0.6200     1.6200     0.2050 ca         1 1A8       0.097600
      8 CAJ         -1.2960     0.6260     0.9060 ca         1 1A8      -0.114000
      9 CAK          0.7200     1.4240    -0.1440 ca         1 1A8      -0.185000
     10 CAW          1.3940     0.2590     0.1950 ca         1 1A8       0.005200
     11 CAX          2.7950     0.0460    -0.1790 cc         1 1A8       0.069400
     12 CAI          3.5640    -1.0120     0.1370 cd         1 1A8      -0.145400
     13 SAS          5.1650    -0.8690    -0.5100 ss         1 1A8      -0.138200
     14 CAZ          4.7770     0.6970    -1.2470 c          1 1A8       0.704100
     15 OAC          5.5390     1.3750    -1.8980 o          1 1A8      -0.574500
     16 NAQ          3.4820     0.9760    -0.9410 ns         1 1A8      -0.468100
     17 CAL          0.7090    -0.7350     0.8940 ca         1 1A8      -0.166000
     18 CAV         -0.6140    -0.5380     1.2400 ca         1 1A8       0.120600
     19 NAP         -1.3140    -1.5510     1.9500 nu         1 1A8      -0.669500
     20 SBA         -2.2880    -2.5720     1.0660 sy         1 1A8       1.326200
     21 OAD         -2.7230    -3.5930     1.9980 o          1 1A8      -0.593800
     22 OAE         -3.2390    -1.7450     0.3510 o          1 1A8      -0.593800
     23 CAY         -1.2630    -3.3020    -0.1410 cc         1 1A8      -0.352600
     24 SAR         -1.1190    -2.5930    -1.6950 ss         1 1A8       0.081200
     25 CAG          0.0560    -3.7450    -2.1410 cc         1 1A8      -0.095100
     26 CAF          0.3260    -4.6310    -1.1380 cd         1 1A8      -0.176000
     27 CAH         -0.4340    -4.3740     0.0280 cd         1 1A8      -0.019000
     28 H1          -5.2080     7.0530    -0.6140 hc         1 1A8       0.034700
     29 H2          -3.5160     7.3720    -0.2430 hc         1 1A8       0.034700
     30 H3          -3.9660     6.7350    -1.8210 hc         1 1A8       0.034700
     31 H4          -4.3070     5.2440     0.8370 hc         1 1A8       0.058700
     32 H5          -4.7590     4.6100    -0.7300 hc         1 1A8       0.058700
     33 H6          -2.3630     4.7600    -1.4780 hc         1 1A8       0.058200
     34 H7          -1.9150     5.3940     0.0850 hc         1 1A8       0.058200
     35 H8          -0.5820     3.4400    -0.7040 hn         1 1A8       0.315500
     36 H9          -2.3210     0.7490     1.2090 ha         1 1A8       0.199000
     37 H10          1.2190     2.2230    -0.6780 ha         1 1A8       0.125000
     38 H11          3.2890    -1.8770     0.7160 h4         1 1A8       0.180000
     39 H12          1.1920    -1.6630     1.1690 ha         1 1A8       0.140000
     40 H13         -0.7370    -2.0730     2.6020 hn         1 1A8       0.431800
     41 H14          0.4860    -3.7180    -3.1310 h4         1 1A8       0.172000
     42 H15          1.0350    -5.4390    -1.2300 ha         1 1A8       0.158000
     43 H16         -0.3710    -4.9550     0.9370 ha         1 1A8       0.164000
     44 H17          3.0730     1.8270    -1.2960 hn         1 1A8       0.340500
@<TRIPOS>BOND
     1     1     2 1   
     2     1    28 1   
     3     1    29 1   
     4     1    30 1   
     5     2     3 1   
     6     2    31 1   
     7     2    32 1   
     8     3     4 1   
     9     3    33 1   
    10     3    34 1   
    11     4     5 2   
    12     4     6 1   
    13     6     7 1   
    14     6    35 1   
    15     7     8 ar  
    16     7     9 ar  
    17     8    18 ar  
    18     8    36 1   
    19     9    10 ar  
    20     9    37 1   
    21    10    11 1   
    22    10    17 ar  
    23    11    12 2   
    24    11    16 1   
    25    12    13 1   
    26    12    38 1   
    27    13    14 1   
    28    14    15 2   
    29    14    16 1   
    30    16    44 1   
    31    17    18 ar  
    32    17    39 1   
    33    18    19 1   
    34    19    20 1   
    35    19    40 1   
    36    20    21 2   
    37    20    22 2   
    38    20    23 1   
    39    23    24 1   
    40    23    27 2   
    41    24    25 1   
    42    25    26 2   
    43    25    41 1   
    44    26    27 1   
    45    26    42 1   
    46    27    43 1   
@<TRIPOS>SUBSTRUCTURE
     1 1A8         1 TEMP              0 ****  ****    0 ROOT
