@<TRIPOS>MOLECULE
1A9
   57    60     1     0     0
SMALL
abcg2


@<TRIPOS>ATOM
      1 CAP          6.6440    -2.0690    -0.5000 c6         1 1A9      -0.071900
      2 CAM          7.9600    -2.8140    -0.2950 c6         1 1A9      -0.073400
      3 CAL          9.1490    -1.8590    -0.3020 c6         1 1A9      -0.075400
      4 CAN          8.9700    -0.7550     0.7350 c6         1 1A9      -0.073400
      5 CAQ          7.6540    -0.0130     0.5270 c6         1 1A9      -0.071900
      6 CBE          6.4480    -0.9540     0.5300 c6         1 1A9      -0.061700
      7 CAR          5.1630    -0.1590     0.3090 c3         1 1A9      -0.065400
      8 CAO          3.8910    -0.9820     0.4740 c3         1 1A9      -0.155400
      9 CAX          2.6380    -0.1390     0.3780 c          1 1A9       0.609100
     10 OAA          2.5740     0.9930     0.8210 o          1 1A9      -0.579100
     11 NAS          1.5920    -0.7700    -0.2240 ns         1 1A9      -0.149000
     12 CAY          0.2930    -0.3160    -0.4430 ca         1 1A9       0.000000
     13 CAI         -0.5880    -1.2150    -1.0510 ca         1 1A9      -0.128000
     14 CAJ         -0.1610     0.9550    -0.0950 ca         1 1A9      -0.127000
     15 CBA         -1.4800     1.3200    -0.3650 ca         1 1A9      -0.008800
     16 CBB         -1.9800     2.6310     0.0500 cc         1 1A9       0.064400
     17 CAH         -3.2120     2.9050     0.5120 cd         1 1A9      -0.198400
     18 SAW         -3.3740     4.5790     0.9420 ss         1 1A9      -0.154200
     19 CBD         -1.6930     4.9130     0.4730 c          1 1A9       0.566600
     20 OAB         -1.1530     5.9940     0.5280 o          1 1A9      -0.494000
     21 NAU         -1.1550     3.7410     0.0410 ns         1 1A9      -0.508600
     22 CAK         -2.3480     0.4280    -0.9800 ca         1 1A9      -0.144000
     23 CAZ         -1.8940    -0.8420    -1.3060 ca         1 1A9       0.250000
     24 NAT         -2.7840    -1.7910    -1.8790 nu         1 1A9      -0.855100
     25 SBF         -3.5210    -2.8370    -0.8050 sy         1 1A9       1.179600
     26 OAC         -4.5580    -3.5110    -1.5590 o          1 1A9      -0.527000
     27 OAD         -2.4630    -3.5750    -0.1420 o          1 1A9      -0.527000
     28 CBC         -4.2580    -1.8250     0.4090 cc         1 1A9      -0.496500
     29 SAV         -3.3940    -1.4190     1.8340 ss         1 1A9       0.377000
     30 CAF         -4.6280    -0.3430     2.3090 cc         1 1A9      -0.222000
     31 CAE         -5.6550    -0.2980     1.4090 cd         1 1A9      -0.163000
     32 CAG         -5.4410    -1.1520     0.3020 cd         1 1A9      -0.001000
     33 H1           6.6290    -1.6300    -1.5050 hc         1 1A9       0.038200
     34 H2           5.8150    -2.7790    -0.4600 hc         1 1A9       0.038200
     35 H3           7.9290    -3.3490     0.6610 hc         1 1A9       0.039700
     36 H4           8.0810    -3.5750    -1.0690 hc         1 1A9       0.039700
     37 H5          10.0790    -2.4040    -0.1240 hc         1 1A9       0.039700
     38 H6           9.2380    -1.4060    -1.2960 hc         1 1A9       0.039700
     39 H7           8.9810    -1.1950     1.7380 hc         1 1A9       0.039700
     40 H8           7.5260     0.7470     1.3030 hc         1 1A9       0.038200
     41 H9           6.3970    -1.4230     1.5240 hc         1 1A9       0.046700
     42 H10          5.1420     0.6730     1.0170 hc         1 1A9       0.055700
     43 H11          5.1840     0.2860    -0.6910 hc         1 1A9       0.055700
     44 H12          3.8560    -1.7960    -0.2520 hc         1 1A9       0.062700
     45 H13          3.8850    -1.4560     1.4620 hc         1 1A9       0.062700
     46 H14          1.7750    -1.7040    -0.5580 hn         1 1A9       0.159000
     47 H15         -0.2490    -2.2030    -1.3360 ha         1 1A9       0.143000
     48 H16          0.4980     1.6440     0.4070 ha         1 1A9       0.157000
     49 H17         -4.0160     2.2040     0.6660 h4         1 1A9       0.230000
     50 H18         -3.3670     0.7160    -1.2040 ha         1 1A9       0.126000
     51 H19         -3.4710    -1.3820    -2.5070 hn         1 1A9       0.487000
     52 H20         -4.5420     0.1960     3.2400 h4         1 1A9       0.157000
     53 H21         -6.5340     0.3170     1.5380 ha         1 1A9       0.142000
     54 H22         -6.1260    -1.2560    -0.5280 ha         1 1A9       0.147000
     55 H23          9.8070    -0.0550     0.6940 hc         1 1A9       0.039700
     56 H24          7.6860     0.5250    -0.4290 hc         1 1A9       0.038200
     57 H25         -0.2190     3.7270    -0.3390 hn         1 1A9       0.464000
@<TRIPOS>BOND
     1     1     2 1   
     2     1     6 1   
     3     1    33 1   
     4     1    34 1   
     5     2     3 1   
     6     2    35 1   
     7     2    36 1   
     8     3     4 1   
     9     3    37 1   
    10     3    38 1   
    11     4     5 1   
    12     4    39 1   
    13     4    55 1   
    14     5     6 1   
    15     5    40 1   
    16     5    56 1   
    17     6     7 1   
    18     6    41 1   
    19     7     8 1   
    20     7    42 1   
    21     7    43 1   
    22     8     9 1   
    23     8    44 1   
    24     8    45 1   
    25     9    10 2   
    26     9    11 1   
    27    11    12 1   
    28    11    46 1   
    29    12    13 ar  
    30    12    14 ar  
    31    13    23 ar  
    32    13    47 1   
    33    14    15 ar  
    34    14    48 1   
    35    15    16 1   
    36    15    22 ar  
    37    16    17 2   
    38    16    21 1   
    39    17    18 1   
    40    17    49 1   
    41    18    19 1   
    42    19    20 2   
    43    19    21 1   
    44    21    57 1   
    45    22    23 ar  
    46    22    50 1   
    47    23    24 1   
    48    24    25 1   
    49    24    51 1   
    50    25    26 2   
    51    25    27 2   
    52    25    28 1   
    53    28    29 1   
    54    28    32 2   
    55    29    30 1   
    56    30    31 2   
    57    30    52 1   
    58    31    32 1   
    59    31    53 1   
    60    32    54 1   
@<TRIPOS>SUBSTRUCTURE
     1 1A9         1 TEMP              0 ****  ****    0 ROOT
