@<TRIPOS>MOLECULE
1A9
   57    60     1     0     0
SMALL
No Charge or Current Charge


@<TRIPOS>ATOM
      1 CAP          5.9820    -2.4410     0.4240 c6         1 1A9      -0.071900
      2 CAM          7.2950    -3.2010     0.7400 c6         1 1A9      -0.073400
      3 CAL          8.4640    -2.6970    -0.1390 c6         1 1A9      -0.075400
      4 CAN          8.6530    -1.1690     0.0140 c6         1 1A9      -0.073400
      5 CAQ          7.3420    -0.4090    -0.3090 c6         1 1A9      -0.071900
      6 CBE          6.1590    -0.9010     0.5730 c6         1 1A9      -0.061700
      7 CAR          4.8570    -0.1090     0.2360 c3         1 1A9      -0.065400
      8 CAO          3.6430    -0.4010     1.1560 c3         1 1A9      -0.155400
      9 CAX          2.4600     0.5280     0.8470 c          1 1A9       0.609100
     10 OAA          2.4680     1.7050     1.1880 o          1 1A9      -0.579100
     11 NAS          1.4080    -0.0900     0.1840 ns         1 1A9      -0.149000
     12 CAY          0.1410     0.3850    -0.2560 ca         1 1A9       0.000000
     13 CAI         -0.6510    -0.4910    -1.0200 ca         1 1A9      -0.128000
     14 CAJ         -0.3570     1.6720     0.0400 ca         1 1A9      -0.127000
     15 CBA         -1.6210     2.0830    -0.4300 ca         1 1A9      -0.008800
     16 CBB         -2.1240     3.4250    -0.1220 cc         1 1A9       0.064400
     17 CAH         -3.4590     3.6600     0.1050 cd         1 1A9      -0.198400
     18 SAW         -3.6630     5.3890     0.4630 ss         1 1A9      -0.154200
     19 CBD         -1.8850     5.7260     0.2890 c          1 1A9       0.566600
     20 OAB         -1.2990     6.7890     0.4070 o          1 1A9      -0.494000
     21 NAU         -1.3170     4.5300    -0.0150 ns         1 1A9      -0.508600
     22 CAK         -2.3910     1.1870    -1.1970 ca         1 1A9      -0.144000
     23 CAZ         -1.9190    -0.1010    -1.4820 ca         1 1A9       0.250000
     24 NAT         -2.7090    -0.9610    -2.2370 nu         1 1A9      -0.855100
     25 SBF         -3.0530    -2.5690    -1.9180 sy         1 1A9       1.179600
     26 OAC         -4.3760    -2.7530    -2.5150 o          1 1A9      -0.527000
     27 OAD         -1.8650    -3.3190    -2.3320 o          1 1A9      -0.527000
     28 CBC         -3.1920    -2.5440    -0.1580 cc         1 1A9      -0.496500
     29 SAV         -1.9320    -3.2170     0.8550 ss         1 1A9       0.377000
     30 CAF         -2.8340    -2.7730     2.3020 cc         1 1A9      -0.222000
     31 CAE         -4.0200    -2.1590     1.9790 cd         1 1A9      -0.163000
     32 CAG         -4.2270    -2.0290     0.5810 cd         1 1A9      -0.001000
     33 H1           5.6540    -2.6830    -0.5970 hc         1 1A9       0.038200
     34 H2           5.1960    -2.8050     1.0990 hc         1 1A9       0.038200
     35 H3           7.5490    -3.0730     1.8020 hc         1 1A9       0.039700
     36 H4           7.1490    -4.2780     0.5820 hc         1 1A9       0.039700
     37 H5           9.3910    -3.2170     0.1380 hc         1 1A9       0.039700
     38 H6           8.2690    -2.9430    -1.1920 hc         1 1A9       0.039700
     39 H7           8.9740    -0.9350     1.0390 hc         1 1A9       0.039700
     40 H8           7.5010     0.6680    -0.1580 hc         1 1A9       0.038200
     41 H9           6.3970    -0.6770     1.6230 hc         1 1A9       0.046700
     42 H10          5.0740     0.9660     0.2920 hc         1 1A9       0.055700
     43 H11          4.5650    -0.3020    -0.8040 hc         1 1A9       0.055700
     44 H12          3.3360    -1.4440     1.0190 hc         1 1A9       0.062700
     45 H13          3.9490    -0.2380     2.1960 hc         1 1A9       0.062700
     46 H14          1.5740    -1.0650    -0.0300 hn         1 1A9       0.159000
     47 H15         -0.2720    -1.4780    -1.2640 ha         1 1A9       0.143000
     48 H16          0.2170     2.3610     0.6500 ha         1 1A9       0.157000
     49 H17         -4.2940     2.9670     0.1010 h4         1 1A9       0.230000
     50 H18         -3.3620     1.4950    -1.5750 ha         1 1A9       0.126000
     51 H19         -3.6010    -0.5890    -2.5300 hn         1 1A9       0.487000
     52 H20         -2.4200    -3.0010     3.2750 h4         1 1A9       0.157000
     53 H21         -4.7300    -1.8060     2.7210 ha         1 1A9       0.142000
     54 H22         -5.1100    -1.5650     0.1460 ha         1 1A9       0.147000
     55 H23          9.4560    -0.8240    -0.6510 hc         1 1A9       0.039700
     56 H24          7.0960    -0.5400    -1.3720 hc         1 1A9       0.038200
     57 H25         -0.3160     4.5050    -0.1760 hn         1 1A9       0.464000
@<TRIPOS>BOND
     1     1     2 1   
     2     1     6 1   
     3     1    33 1   
     4     1    34 1   
     5     2     3 1   
     6     2    35 1   
     7     2    36 1   
     8     3     4 1   
     9     3    37 1   
    10     3    38 1   
    11     4     5 1   
    12     4    39 1   
    13     4    55 1   
    14     5     6 1   
    15     5    40 1   
    16     5    56 1   
    17     6     7 1   
    18     6    41 1   
    19     7     8 1   
    20     7    42 1   
    21     7    43 1   
    22     8     9 1   
    23     8    44 1   
    24     8    45 1   
    25     9    10 2   
    26     9    11 1   
    27    11    12 1   
    28    11    46 1   
    29    12    13 ar  
    30    12    14 ar  
    31    13    23 ar  
    32    13    47 1   
    33    14    15 ar  
    34    14    48 1   
    35    15    16 1   
    36    15    22 ar  
    37    16    17 2   
    38    16    21 1   
    39    17    18 1   
    40    17    49 1   
    41    18    19 1   
    42    19    20 2   
    43    19    21 1   
    44    21    57 1   
    45    22    23 ar  
    46    22    50 1   
    47    23    24 1   
    48    24    25 1   
    49    24    51 1   
    50    25    26 2   
    51    25    27 2   
    52    25    28 1   
    53    28    29 1   
    54    28    32 2   
    55    29    30 1   
    56    30    31 2   
    57    30    52 1   
    58    31    32 1   
    59    31    53 1   
    60    32    54 1   
@<TRIPOS>SUBSTRUCTURE
     1 1A9         1 TEMP              0 ****  ****    0 ROOT
