@<TRIPOS>MOLECULE
1AA
   59    61     1     0     0
SMALL
No Charge or Current Charge


@<TRIPOS>ATOM
      1 O1          -5.7670     0.2220     0.5110 o          1 1AA      -0.533000
      2 C1          -5.6990     1.4080     0.2320 c          1 1AA       0.718400
      3 N4          -6.7780     2.2090     0.5040 nc         1 1AA      -0.774100
      4 C9          -6.7240     3.4740     0.2690 cd         1 1AA       0.782500
      5 N3          -7.8160     4.1480     0.5610 nv         1 1AA      -1.049200
      6 C8          -5.6070     4.1410    -0.2670 cd         1 1AA      -0.512600
      7 C7          -4.5040     3.3780    -0.5620 cc         1 1AA       0.046600
      8 N2          -4.5480     2.0070    -0.3280 n          1 1AA      -0.306000
      9 C2          -3.3710     1.1820    -0.7100 c5         1 1AA       0.322700
     10 O2          -3.7250    -0.0640    -1.3310 os         1 1AA      -0.399000
     11 C3          -2.5640     0.8440     0.5970 c5         1 1AA       0.100300
     12 O4          -1.2350     1.3690     0.5970 oh         1 1AA      -0.738000
     13 C4          -2.4630    -0.7160     0.5350 c5         1 1AA       0.089300
     14 O3          -1.1760    -1.1510     1.0330 oh         1 1AA      -0.709000
     15 C5          -2.7020    -1.0170    -0.9860 c5         1 1AA       0.164300
     16 C6          -3.2360    -2.4460    -1.3010 c3         1 1AA       0.232600
     17 O11         -2.4710    -3.4580    -0.6240 os         1 1AA      -0.563400
     18 P1          -1.1000    -4.0320    -1.2450 p5         1 1AA       1.453800
     19 O10         -1.2690    -4.2550    -2.7090 o          1 1AA      -0.850500
     20 O9          -0.7290    -5.2750    -0.5060 o          1 1AA      -0.850500
     21 O13         -0.2030    -2.8020    -0.8310 os         1 1AA      -0.685800
     22 P2           1.1350    -2.7710    -1.6720 p5         1 1AA       1.455800
     23 O8           0.9730    -2.1390    -3.0140 o          1 1AA      -0.850500
     24 O7           1.8690    -4.0700    -1.7250 o          1 1AA      -0.850500
     25 O12          1.9330    -1.7730    -0.6960 os         1 1AA      -0.569400
     26 C13          1.7070    -0.3600    -0.8020 c3         1 1AA       0.219600
     27 C12          2.1840     0.3240     0.5010 c3         1 1AA       0.164600
     28 O5           3.6220     0.2510     0.5650 os         1 1AA      -0.393100
     29 C11          4.2530     0.7980     1.6500 c          1 1AA       0.621700
     30 O6           3.6500     1.3310     2.5770 o          1 1AA      -0.574000
     31 C10          5.7510     0.6140     1.6150 ca         1 1AA      -0.227600
     32 C14          6.3100    -0.3880     0.7850 ca         1 1AA       0.018000
     33 C15          7.7010    -0.5840     0.7400 ca         1 1AA      -0.187000
     34 C16          8.5520     0.2120     1.5170 ca         1 1AA      -0.046000
     35 C17          8.0070     1.2070     2.3400 ca         1 1AA      -0.243000
     36 C18          6.6210     1.4100     2.3910 ca         1 1AA       0.374000
     37 N1           6.1600     2.4040     3.2010 nv         1 1AA      -1.119000
     38 HN31        -8.6300     3.5600     0.6760 hn         1 1AA       0.491000
     39 HN32        -7.9580     5.0040     0.0430 hn         1 1AA       0.491000
     40 H8          -5.6190     5.2110    -0.4360 ha         1 1AA       0.188000
     41 H7          -3.5630     3.7340    -0.9770 h4         1 1AA       0.198000
     42 H2          -2.7570     1.7730    -1.4010 h2         1 1AA       0.056700
     43 H3          -3.0990     1.1590     1.5040 h1         1 1AA       0.054700
     44 H4          -0.7300     0.5710     0.9120 ho         1 1AA       0.524000
     45 H11         -3.2750    -1.1660     1.1250 h1         1 1AA       0.085700
     46 H6          -0.8620    -1.8890     0.4370 ho         1 1AA       0.497000
     47 H5          -1.8070    -0.8110    -1.5890 h1         1 1AA       0.075700
     48 H61         -4.2810    -2.5040    -0.9690 h1         1 1AA       0.028700
     49 H62         -3.2320    -2.5980    -2.3880 h1         1 1AA       0.028700
     50 H71          2.2550     0.0590    -1.6560 h1         1 1AA       0.022200
     51 H72          0.6400    -0.1470    -0.9450 h1         1 1AA       0.022200
     52 H81          1.8560     1.3720     0.4910 h1         1 1AA       0.031200
     53 H82          1.7250    -0.1740     1.3650 h1         1 1AA       0.031200
     54 H9           5.6740    -1.0290     0.1760 ha         1 1AA       0.173000
     55 H10          8.1180    -1.3590     0.1000 ha         1 1AA       0.127000
     56 H1           9.6290     0.0590     1.4810 ha         1 1AA       0.092000
     57 H12          8.6720     1.8250     2.9370 ha         1 1AA       0.090000
     58 HN11         6.7750     2.7660     3.9270 hn         1 1AA       0.481500
     59 HN12         5.1580     2.4080     3.4000 hn         1 1AA       0.481500
@<TRIPOS>BOND
     1     1     2 2   
     2     2     3 1   
     3     2     8 1   
     4     3     4 2   
     5     4     5 1   
     6     4     6 1   
     7     5    38 1   
     8     5    39 1   
     9     6     7 2   
    10     6    40 1   
    11     7     8 1   
    12     7    41 1   
    13     8     9 1   
    14     9    10 1   
    15     9    11 1   
    16     9    42 1   
    17    10    15 1   
    18    11    12 1   
    19    11    13 1   
    20    11    43 1   
    21    12    44 1   
    22    13    14 1   
    23    13    15 1   
    24    13    45 1   
    25    14    46 1   
    26    15    16 1   
    27    15    47 1   
    28    16    17 1   
    29    16    48 1   
    30    16    49 1   
    31    17    18 1   
    32    18    19 1   
    33    18    20 1   
    34    18    21 1   
    35    21    22 1   
    36    22    23 1   
    37    22    24 1   
    38    22    25 1   
    39    25    26 1   
    40    26    27 1   
    41    26    50 1   
    42    26    51 1   
    43    27    28 1   
    44    27    52 1   
    45    27    53 1   
    46    28    29 1   
    47    29    30 2   
    48    29    31 1   
    49    31    32 ar  
    50    31    36 ar  
    51    32    33 ar  
    52    32    54 1   
    53    33    34 ar  
    54    33    55 1   
    55    34    35 ar  
    56    34    56 1   
    57    35    36 ar  
    58    35    57 1   
    59    36    37 1   
    60    37    58 1   
    61    37    59 1   
@<TRIPOS>SUBSTRUCTURE
     1 1AA         1 TEMP              0 ****  ****    0 ROOT
