@<TRIPOS>MOLECULE
1AA
   59    61     1     0     0
SMALL
abcg2


@<TRIPOS>ATOM
      1 O1          -5.9050    -0.2440    -0.6410 o          1 1AA      -0.533000
      2 C1          -6.0140     0.9420    -0.3630 c          1 1AA       0.718400
      3 N4          -6.7470     1.7970    -1.1030 nc         1 1AA      -0.774100
      4 C9          -6.8590     3.0670    -0.7660 cd         1 1AA       0.782500
      5 N3          -7.5980     3.8620    -1.5380 nv         1 1AA      -1.049200
      6 C8          -6.2140     3.6070     0.3890 cd         1 1AA      -0.512600
      7 C7          -5.4720     2.7480     1.1120 cc         1 1AA       0.046600
      8 N2          -5.3580     1.4400     0.7750 n          1 1AA      -0.306000
      9 C2          -4.4960     0.5790     1.5680 c5         1 1AA       0.322700
     10 O2          -3.3980     0.1840     0.7940 os         1 1AA      -0.399000
     11 C3          -5.1460    -0.6850     2.1570 c5         1 1AA       0.100300
     12 O4          -4.8650    -0.7140     3.5340 oh         1 1AA      -0.738000
     13 C4          -4.4190    -1.8340     1.4330 c5         1 1AA       0.089300
     14 O3          -4.1500    -2.9250     2.2790 oh         1 1AA      -0.709000
     15 C5          -3.1070    -1.1870     0.9910 c5         1 1AA       0.164300
     16 C6          -2.5700    -1.7910    -0.2820 c3         1 1AA       0.232600
     17 O11         -1.3510    -1.1710    -0.6350 os         1 1AA      -0.563400
     18 P1          -0.2310    -2.1070    -1.3990 p5         1 1AA       1.453800
     19 O10         -0.7870    -2.6060    -2.6960 o          1 1AA      -0.850500
     20 O9           0.3620    -3.0630    -0.4120 o          1 1AA      -0.850500
     21 O13          0.7980    -0.8550    -1.6530 os         1 1AA      -0.685800
     22 P2           1.8120    -0.7730    -2.9420 p5         1 1AA       1.455800
     23 O8           1.1430    -0.0870    -4.0910 o          1 1AA      -0.850500
     24 O7           2.5080    -2.0830    -3.1410 o          1 1AA      -0.850500
     25 O12          2.8260     0.2910    -2.1980 os         1 1AA      -0.569400
     26 C13          3.9220     0.7640    -2.9490 c3         1 1AA       0.219600
     27 C12          4.7690     1.6600    -2.0870 c3         1 1AA       0.164600
     28 O5           5.2900     0.8700    -1.0170 os         1 1AA      -0.393100
     29 C11          6.0760     1.4570    -0.1260 c          1 1AA       0.621700
     30 O6           6.3960     2.6260    -0.2160 o          1 1AA      -0.574000
     31 C10          6.4930     0.5500     0.9540 ca         1 1AA      -0.227600
     32 C14          5.9790    -0.7560     1.0140 ca         1 1AA       0.018000
     33 C15          6.3280    -1.6310     2.0180 ca         1 1AA      -0.187000
     34 C16          7.2200    -1.2000     3.0030 ca         1 1AA      -0.046000
     35 C17          7.7420     0.0710     2.9730 ca         1 1AA      -0.243000
     36 C18          7.4010     0.9850     1.9530 ca         1 1AA       0.374000
     37 N1           7.9820     2.2080     1.9610 nv         1 1AA      -1.119000
     38 HN31        -8.0500     3.4930    -2.3580 hn         1 1AA       0.491000
     39 HN32        -7.7190     4.8370    -1.3290 hn         1 1AA       0.491000
     40 H8          -6.3030     4.6450     0.6690 ha         1 1AA       0.188000
     41 H7          -4.9370     3.0650     1.9980 h4         1 1AA       0.198000
     42 H2          -4.1660     1.2020     2.4060 h2         1 1AA       0.056700
     43 H3          -6.2270    -0.7080     1.9820 h1         1 1AA       0.054700
     44 H4          -4.6340    -1.6280     3.7510 ho         1 1AA       0.524000
     45 H11         -5.0010    -2.1430     0.5640 h1         1 1AA       0.085700
     46 H6          -4.8700    -3.5600     2.2040 ho         1 1AA       0.497000
     47 H5          -2.3610    -1.3040     1.7920 h1         1 1AA       0.075700
     48 H61         -2.4500    -2.8670    -0.1040 h1         1 1AA       0.028700
     49 H62         -3.3080    -1.6700    -1.0820 h1         1 1AA       0.028700
     50 H71          4.5300    -0.0630    -3.3340 h1         1 1AA       0.022200
     51 H72          3.5940     1.3530    -3.8120 h1         1 1AA       0.022200
     52 H81          5.5810     2.0740    -2.6890 h1         1 1AA       0.031200
     53 H82          4.1800     2.4910    -1.6920 h1         1 1AA       0.031200
     54 H9           5.2830    -1.0830     0.2540 ha         1 1AA       0.173000
     55 H10          5.9160    -2.6300     2.0430 ha         1 1AA       0.127000
     56 H1           7.5090    -1.8710     3.8020 ha         1 1AA       0.092000
     57 H12          8.4310     0.3900     3.7470 ha         1 1AA       0.090000
     58 HN11         8.4540     2.5030     2.7970 hn         1 1AA       0.481500
     59 HN12         7.6160     2.9300     1.3660 hn         1 1AA       0.481500
@<TRIPOS>BOND
     1     1     2 2   
     2     2     3 1   
     3     2     8 1   
     4     3     4 2   
     5     4     5 1   
     6     4     6 1   
     7     5    38 1   
     8     5    39 1   
     9     6     7 2   
    10     6    40 1   
    11     7     8 1   
    12     7    41 1   
    13     8     9 1   
    14     9    10 1   
    15     9    11 1   
    16     9    42 1   
    17    10    15 1   
    18    11    12 1   
    19    11    13 1   
    20    11    43 1   
    21    12    44 1   
    22    13    14 1   
    23    13    15 1   
    24    13    45 1   
    25    14    46 1   
    26    15    16 1   
    27    15    47 1   
    28    16    17 1   
    29    16    48 1   
    30    16    49 1   
    31    17    18 1   
    32    18    19 1   
    33    18    20 1   
    34    18    21 1   
    35    21    22 1   
    36    22    23 1   
    37    22    24 1   
    38    22    25 1   
    39    25    26 1   
    40    26    27 1   
    41    26    50 1   
    42    26    51 1   
    43    27    28 1   
    44    27    52 1   
    45    27    53 1   
    46    28    29 1   
    47    29    30 2   
    48    29    31 1   
    49    31    32 ar  
    50    31    36 ar  
    51    32    33 ar  
    52    32    54 1   
    53    33    34 ar  
    54    33    55 1   
    55    34    35 ar  
    56    34    56 1   
    57    35    36 ar  
    58    35    57 1   
    59    36    37 1   
    60    37    58 1   
    61    37    59 1   
@<TRIPOS>SUBSTRUCTURE
     1 1AA         1 TEMP              0 ****  ****    0 ROOT
