@<TRIPOS>MOLECULE
1AB
   20    20     1     0     0
SMALL
No Charge or Current Charge


@<TRIPOS>ATOM
      1 O4          31.1550    20.8960    25.3420 oh         1 1AB      -0.647000
      2 C4          32.4680    21.3560    25.6970 c5         1 1AB       0.087300
      3 C3          32.7080    22.8410    25.3140 c5         1 1AB       0.114300
      4 O3          32.8120    23.0260    23.8980 oh         1 1AB      -0.653000
      5 C2          34.0420    23.0870    26.0840 c5         1 1AB       0.141800
      6 N1          33.9260    22.3230    27.3660 n7         1 1AB      -0.823400
      7 C5          32.7100    21.4610    27.2360 c5         1 1AB       0.086500
      8 C6          32.8690    20.0940    27.9690 c3         1 1AB       0.161600
      9 O6          34.0850    19.4260    27.5750 oh         1 1AB      -0.664000
     10 HO4         30.5040    21.4930    25.7730 ho         1 1AB       0.441000
     11 H4          33.2320    20.7180    25.2300 h1         1 1AB       0.085700
     12 H3          31.9110    23.4800    25.7210 h1         1 1AB       0.035700
     13 HO3         32.0730    22.5130    23.5000 ho         1 1AB       0.451000
     14 H21         34.2070    24.1580    26.2690 h1         1 1AB       0.067700
     15 H22         34.8970    22.7190    25.4980 h1         1 1AB       0.067700
     16 HN1         34.7430    21.7000    27.4510 hn         1 1AB       0.420000
     17 H5          31.8550    21.9770    27.6970 h1         1 1AB       0.067700
     18 H61         31.9900    19.4680    27.7600 h1         1 1AB       0.058700
     19 H62         32.8810    20.2870    29.0510 h1         1 1AB       0.058700
     20 HO6         33.9090    18.9950    26.7100 ho         1 1AB       0.441000
@<TRIPOS>BOND
     1     1     2 1   
     2     1    10 1   
     3     2     3 1   
     4     2     7 1   
     5     2    11 1   
     6     3     4 1   
     7     3     5 1   
     8     3    12 1   
     9     4    13 1   
    10     5     6 1   
    11     5    14 1   
    12     5    15 1   
    13     6     7 1   
    14     6    16 1   
    15     7     8 1   
    16     7    17 1   
    17     8     9 1   
    18     8    18 1   
    19     8    19 1   
    20     9    20 1   
@<TRIPOS>SUBSTRUCTURE
     1 1AB         1 TEMP              0 ****  ****    0 ROOT
