@<TRIPOS>MOLECULE
1AB
   20    20     1     0     0
SMALL
abcg2


@<TRIPOS>ATOM
      1 O4          31.0800    20.9250    25.4860 oh         1 1AB      -0.647000
      2 C4          32.4060    21.3500    25.7710 c5         1 1AB       0.087300
      3 C3          32.7610    22.7470    25.2590 c5         1 1AB       0.114300
      4 O3          33.1450    22.7950    23.8870 oh         1 1AB      -0.653000
      5 C2          33.9340    23.1830    26.1570 c5         1 1AB       0.141800
      6 N1          34.0100    22.2240    27.2860 n7         1 1AB      -0.823400
      7 C5          32.7650    21.4430    27.2590 c5         1 1AB       0.086500
      8 C6          32.9000    20.1160    27.9850 c3         1 1AB       0.161600
      9 O6          33.9930    19.3260    27.5100 oh         1 1AB      -0.664000
     10 HO4         30.4640    21.5440    25.9020 ho         1 1AB       0.441000
     11 H4          33.0610    20.6280    25.2760 h1         1 1AB       0.085700
     12 H3          31.8940    23.4000    25.4170 h1         1 1AB       0.035700
     13 HO3         32.3740    22.5720    23.3500 ho         1 1AB       0.451000
     14 H21         33.7760    24.1970    26.5300 h1         1 1AB       0.067700
     15 H22         34.8620    23.1760    25.5860 h1         1 1AB       0.067700
     16 HN1         34.7700    21.5750    27.1100 hn         1 1AB       0.420000
     17 H5          31.9700    22.0090    27.7650 h1         1 1AB       0.067700
     18 H61         31.9580    19.5660    27.9060 h1         1 1AB       0.058700
     19 H62         33.1030    20.2990    29.0410 h1         1 1AB       0.058700
     20 HO6         33.7540    18.9420    26.6580 ho         1 1AB       0.441000
@<TRIPOS>BOND
     1     1     2 1   
     2     1    10 1   
     3     2     3 1   
     4     2     7 1   
     5     2    11 1   
     6     3     4 1   
     7     3     5 1   
     8     3    12 1   
     9     4    13 1   
    10     5     6 1   
    11     5    14 1   
    12     5    15 1   
    13     6     7 1   
    14     6    16 1   
    15     7     8 1   
    16     7    17 1   
    17     8     9 1   
    18     8    18 1   
    19     8    19 1   
    20     9    20 1   
@<TRIPOS>SUBSTRUCTURE
     1 1AB         1 TEMP              0 ****  ****    0 ROOT
