@<TRIPOS>MOLECULE
1AC
   13    13     1     0     0
SMALL
bcc


@<TRIPOS>ATOM
      1 CB          27.6490   132.0690    19.6790 cx         1 1AC      -0.123900
      2 CG          28.3520   131.7770    20.9630 cx         1 1AC      -0.123900
      3 CA          28.7640   132.9690    20.1420 cx         1 1AC      -0.018800
      4 C           28.3760   134.3530    20.6660 c          1 1AC       0.933600
      5 OXT         29.1750   135.2800    20.4210 o          1 1AC      -0.840800
      6 O           27.2980   134.4450    21.2890 o          1 1AC      -0.840800
      7 N           30.0020   132.8120    19.4280 n8         1 1AC      -0.870800
      8 HB1         27.8580   131.4260    18.8330 hc         1 1AC       0.055700
      9 HB2         26.6370   132.4480    19.7230 hc         1 1AC       0.055700
     10 HG1         27.8230   131.9540    21.8900 hc         1 1AC       0.055700
     11 HG2         29.0350   130.9370    20.9830 hc         1 1AC       0.055700
     12 H           30.7620   133.1350    20.0160 hn         1 1AC       0.331800
     13 H2          30.0060   133.4440    18.6360 hn         1 1AC       0.331800
@<TRIPOS>BOND
     1     1     2 1   
     2     1     3 1   
     3     1     8 1   
     4     1     9 1   
     5     2     3 1   
     6     2    10 1   
     7     2    11 1   
     8     3     4 1   
     9     3     7 1   
    10     4     5 1   
    11     4     6 1   
    12     7    12 1   
    13     7    13 1   
@<TRIPOS>SUBSTRUCTURE
     1 1AC         1 TEMP              0 ****  ****    0 ROOT
