@<TRIPOS>MOLECULE
1AD
   44    45     1     0     0
SMALL
bcc


@<TRIPOS>ATOM
      1 C2          -1.4850    -0.8160    -1.2320 c5         1 1AD       0.205800
      2 C3          -2.4230     0.8410     0.2370 c5         1 1AD       0.106700
      3 C4          -0.1790     1.2500    -0.6850 c          1 1AD       0.696100
      4 C5          -2.9600    -0.6430    -1.6120 c5         1 1AD      -0.088400
      5 C6          -1.2460    -2.0160    -0.4260 c1         1 1AD      -0.161100
      6 C7          -3.5620     0.0020    -0.3700 c5         1 1AD      -0.092400
      7 C8          -2.3190     0.6050     1.7410 c3         1 1AD       0.147800
      8 C9           1.0980     0.6640    -1.2760 c3         1 1AD       0.100500
      9 N1          -1.2260     0.4150    -0.4920 n          1 1AD      -0.471800
     10 O10         -0.2100     2.4200    -0.3320 o          1 1AD      -0.600100
     11 C11         -1.0460    -3.0120     0.2200 c1         1 1AD      -0.116100
     12 N12         -1.1890     1.2740     2.3530 n8         1 1AD      -0.885800
     13 C13          1.8430    -0.0810    -0.1430 c5         1 1AD      -0.103700
     14 N14          1.8370     1.7190    -1.9380 n8         1 1AD      -0.885800
     15 C15         -0.8040    -4.2060     1.0150 c3         1 1AD      -0.008000
     16 C16          3.1290    -0.7880    -0.6460 c5         1 1AD      -0.081900
     17 C17          2.2980     0.8250     1.0150 c5         1 1AD      -0.081900
     18 C18          4.2840    -0.1500     0.1310 c5         1 1AD      -0.081400
     19 C19          3.6410     0.2480     1.4570 c5         1 1AD      -0.081400
     20 H2          -0.8650    -0.8640    -2.1270 h1         1 1AD       0.077700
     21 H3          -2.5840     1.9050     0.0490 h1         1 1AD       0.072700
     22 H51         -3.0140     0.0320    -2.4680 hc         1 1AD       0.059200
     23 H52         -3.4360    -1.5830    -1.8890 hc         1 1AD       0.059200
     24 H71         -4.4350     0.6120    -0.6000 hc         1 1AD       0.053200
     25 H72         -3.8860    -0.7690     0.3330 hc         1 1AD       0.053200
     26 H81         -3.2930     0.8930     2.1660 h1         1 1AD       0.029700
     27 H82         -2.2160    -0.4700     1.9140 h1         1 1AD       0.029700
     28 H9           0.8660    -0.0840    -2.0370 h1         1 1AD       0.063700
     29 H121        -1.2400     2.2700     2.1860 hn         1 1AD       0.344300
     30 H122        -1.2340     1.1510     3.3570 hn         1 1AD       0.344300
     31 H13          1.1620    -0.8400     0.2510 hc         1 1AD       0.069700
     32 H141         1.9910     2.4900    -1.3020 hn         1 1AD       0.353800
     33 H142         2.7510     1.3770    -2.2100 hn         1 1AD       0.353800
     34 H151        -1.5620    -4.3230     1.7890 hc         1 1AD       0.052700
     35 H152        -0.8210    -5.1020     0.3940 hc         1 1AD       0.052700
     36 H153         0.1690    -4.1600     1.5040 hc         1 1AD       0.052700
     37 H161         3.0710    -1.8550    -0.4210 hc         1 1AD       0.048950
     38 H162         3.2620    -0.7090    -1.7280 hc         1 1AD       0.048950
     39 H171         2.4600     1.8480     0.6630 hc         1 1AD       0.048950
     40 H172         1.5450     0.8780     1.8020 hc         1 1AD       0.048950
     41 H181         5.1430    -0.8140     0.2400 hc         1 1AD       0.040950
     42 H182         4.6290     0.7500    -0.3880 hc         1 1AD       0.040950
     43 H191         3.4960    -0.6360     2.0850 hc         1 1AD       0.040950
     44 H192         4.2410     0.9580     2.0300 hc         1 1AD       0.040950
@<TRIPOS>BOND
     1     1     4 1   
     2     1     5 1   
     3     1     9 1   
     4     1    20 1   
     5     2     6 1   
     6     2     7 1   
     7     2     9 1   
     8     2    21 1   
     9     3     8 1   
    10     3     9 1   
    11     3    10 2   
    12     4     6 1   
    13     4    22 1   
    14     4    23 1   
    15     5    11 3   
    16     6    24 1   
    17     6    25 1   
    18     7    12 1   
    19     7    26 1   
    20     7    27 1   
    21     8    13 1   
    22     8    14 1   
    23     8    28 1   
    24    11    15 1   
    25    12    29 1   
    26    12    30 1   
    27    13    16 1   
    28    13    17 1   
    29    13    31 1   
    30    14    32 1   
    31    14    33 1   
    32    15    34 1   
    33    15    35 1   
    34    15    36 1   
    35    16    18 1   
    36    16    37 1   
    37    16    38 1   
    38    17    19 1   
    39    17    39 1   
    40    17    40 1   
    41    18    19 1   
    42    18    41 1   
    43    18    42 1   
    44    19    43 1   
    45    19    44 1   
@<TRIPOS>SUBSTRUCTURE
     1 1AD         1 TEMP              0 ****  ****    0 ROOT
