@<TRIPOS>MOLECULE
1AD
   44    45     1     0     0
SMALL
No Charge or Current Charge


@<TRIPOS>ATOM
      1 C2          -1.6410    -0.7970    -1.2780 c5         1 1AD       0.205800
      2 C3          -2.5400     0.8130     0.3650 c5         1 1AD       0.106700
      3 C4          -0.3690     1.3150    -0.8450 c          1 1AD       0.629100
      4 C5          -3.1920    -0.7800    -1.3240 c5         1 1AD      -0.088400
      5 C6          -1.0740    -2.0430    -0.7170 c1         1 1AD      -0.161100
      6 C7          -3.5440    -0.3520     0.1170 c5         1 1AD      -0.092400
      7 C8          -2.2770     0.9720     1.8980 c3         1 1AD       0.147800
      8 C9           1.0190     0.7500    -1.3690 c3         1 1AD       0.100500
      9 N1          -1.3510     0.3840    -0.4310 n          1 1AD      -0.404800
     10 O10         -0.5710     2.5250    -0.7600 o          1 1AD      -0.600100
     11 C11         -0.5580    -3.0280    -0.2440 c1         1 1AD      -0.116100
     12 N12         -1.3000     2.0300     2.2460 n8         1 1AD      -0.996200
     13 C13          1.8380     0.0950    -0.2140 c5         1 1AD      -0.103700
     14 N14          1.8770     1.7050    -2.1540 n8         1 1AD      -0.996200
     15 C15          0.1050    -4.1970     0.3420 c3         1 1AD      -0.008000
     16 C16          3.0860    -0.7230    -0.6380 c5         1 1AD      -0.081900
     17 C17          2.5010     1.0630     0.8020 c5         1 1AD      -0.081900
     18 C18          3.6800    -1.1160     0.7440 c5         1 1AD      -0.081400
     19 C19          3.3280     0.0830     1.6860 c5         1 1AD      -0.081400
     20 H2          -1.2410    -0.6920    -2.2960 h1         1 1AD       0.077700
     21 H3          -2.9480     1.7540    -0.0290 h1         1 1AD       0.072700
     22 H51         -3.5530    -0.0440    -2.0510 hc         1 1AD       0.059200
     23 H52         -3.6240    -1.7490    -1.6010 hc         1 1AD       0.059200
     24 H71         -4.5870    -0.0310     0.2190 hc         1 1AD       0.053200
     25 H72         -3.3920    -1.1810     0.8200 hc         1 1AD       0.053200
     26 H81         -3.2300     1.2170     2.3860 h1         1 1AD       0.029700
     27 H82         -1.9180     0.0200     2.3120 h1         1 1AD       0.029700
     28 H9           0.7770    -0.0660    -2.0610 h1         1 1AD       0.063700
     29 H121        -1.5810     2.9100     1.7990 hn         1 1AD       0.399500
     30 H122        -1.3610     2.2300     3.2510 hn         1 1AD       0.399500
     31 H13          1.1370    -0.5630     0.3160 hc         1 1AD       0.069700
     32 H141         2.0340     2.5450    -1.5840 hn         1 1AD       0.409000
     33 H142         2.8150     1.3020    -2.2570 hn         1 1AD       0.409000
     34 H151        -0.3890    -4.4860     1.2770 hc         1 1AD       0.052700
     35 H152         0.0650    -5.0450    -0.3520 hc         1 1AD       0.052700
     36 H153         1.1560    -3.9700     0.5570 hc         1 1AD       0.052700
     37 H161         2.8270    -1.6020    -1.2400 hc         1 1AD       0.048950
     38 H162         3.8000    -0.1270    -1.2200 hc         1 1AD       0.048950
     39 H171         3.1550     1.7950     0.3140 hc         1 1AD       0.048950
     40 H172         1.7660     1.6250     1.3890 hc         1 1AD       0.048950
     41 H181         3.2270    -2.0430     1.1140 hc         1 1AD       0.040950
     42 H182         4.7610    -1.2940     0.6850 hc         1 1AD       0.040950
     43 H191         2.7410    -0.2630     2.5450 hc         1 1AD       0.040950
     44 H192         4.2250     0.5670     2.0900 hc         1 1AD       0.040950
@<TRIPOS>BOND
     1     1     4 1   
     2     1     5 1   
     3     1     9 1   
     4     1    20 1   
     5     2     6 1   
     6     2     7 1   
     7     2     9 1   
     8     2    21 1   
     9     3     8 1   
    10     3     9 1   
    11     3    10 2   
    12     4     6 1   
    13     4    22 1   
    14     4    23 1   
    15     5    11 3   
    16     6    24 1   
    17     6    25 1   
    18     7    12 1   
    19     7    26 1   
    20     7    27 1   
    21     8    13 1   
    22     8    14 1   
    23     8    28 1   
    24    11    15 1   
    25    12    29 1   
    26    12    30 1   
    27    13    16 1   
    28    13    17 1   
    29    13    31 1   
    30    14    32 1   
    31    14    33 1   
    32    15    34 1   
    33    15    35 1   
    34    15    36 1   
    35    16    18 1   
    36    16    37 1   
    37    16    38 1   
    38    17    19 1   
    39    17    39 1   
    40    17    40 1   
    41    18    19 1   
    42    18    41 1   
    43    18    42 1   
    44    19    43 1   
    45    19    44 1   
@<TRIPOS>SUBSTRUCTURE
     1 1AD         1 TEMP              0 ****  ****    0 ROOT
