@<TRIPOS>MOLECULE
1AE
   22    21     1     0     0
SMALL
abcg2


@<TRIPOS>ATOM
      1 C1           0.8480     0.2370    -0.7710 c3         1 1AE      -0.089100
      2 C2           1.0750     1.7420    -0.8010 c3         1 1AE      -0.062400
      3 C3           2.1720     2.1160    -1.7870 c3         1 1AE      -0.170400
      4 C4           2.4590     3.6000    -1.8580 c          1 1AE       0.561300
      5 O4           1.8780     4.3950    -1.1230 o          1 1AE      -0.692100
      6 C5           3.4460     4.1160    -2.7870 ce         1 1AE      -0.307100
      7 O5           3.6600     5.4650    -2.7640 oh         1 1AE      -0.539100
      8 C6           4.1380     3.3290    -3.6440 c2         1 1AE       0.233100
      9 O7           5.0310     3.7950    -4.4760 os         1 1AE      -0.340500
     10 P            5.9850     2.6160    -5.4250 p5         1 1AE       1.235900
     11 O8           4.9070     1.8000    -6.1110 o          1 1AE      -0.889500
     12 O9           6.7640     1.8920    -4.3450 o          1 1AE      -0.889500
     13 O10          6.7660     3.5770    -6.2940 o          1 1AE      -0.889500
     14 H11          0.0630    -0.0300    -0.0630 hc         1 1AE       0.018700
     15 H12          0.5510    -0.1400    -1.7510 hc         1 1AE       0.018700
     16 H13          1.7540    -0.2960    -0.4760 hc         1 1AE       0.018700
     17 H21          0.1450     2.2470    -1.0710 hc         1 1AE       0.035700
     18 H22          1.3390     2.0910     0.1990 hc         1 1AE       0.035700
     19 H31          3.0970     1.5950    -1.5220 hc         1 1AE       0.061700
     20 H32          1.9080     1.7530    -2.7850 hc         1 1AE       0.061700
     21 HO5          3.0880     5.8200    -2.0700 ho         1 1AE       0.424000
     22 H62          3.9360     2.2600    -3.6470 h4         1 1AE       0.162000
@<TRIPOS>BOND
     1     1     2 1   
     2     1    14 1   
     3     1    15 1   
     4     1    16 1   
     5     2     3 1   
     6     2    17 1   
     7     2    18 1   
     8     3     4 1   
     9     3    19 1   
    10     3    20 1   
    11     4     5 2   
    12     4     6 1   
    13     6     7 1   
    14     6     8 2   
    15     7    21 1   
    16     8     9 1   
    17     8    22 1   
    18     9    10 1   
    19    10    11 1   
    20    10    12 1   
    21    10    13 1   
@<TRIPOS>SUBSTRUCTURE
     1 1AE         1 TEMP              0 ****  ****    0 ROOT
