@<TRIPOS>MOLECULE
1AE
   22    21     1     0     0
SMALL
No Charge or Current Charge


@<TRIPOS>ATOM
      1 C1           0.7990     0.1880    -0.7080 c3         1 1AE      -0.089100
      2 C2           1.0320     1.7110    -0.7400 c3         1 1AE      -0.062400
      3 C3           2.1260     2.1320    -1.7510 c3         1 1AE      -0.170400
      4 C4           2.4180     3.6440    -1.8410 c          1 1AE       0.561300
      5 O4           1.8140     4.4590    -1.1490 o          1 1AE      -0.692100
      6 C5           3.4740     4.1360    -2.8070 ce         1 1AE      -0.307100
      7 O5           3.6530     5.4990    -2.8060 oh         1 1AE      -0.539100
      8 C6           4.1830     3.2940    -3.6050 c2         1 1AE       0.233100
      9 O7           5.1360     3.7310    -4.4770 os         1 1AE      -0.340500
     10 P            5.9820     2.7410    -5.4270 p5         1 1AE       1.235900
     11 O8           5.0570     1.9970    -6.3280 o          1 1AE      -0.889500
     12 O9           6.7480     1.7750    -4.5920 o          1 1AE      -0.889500
     13 O10          6.9340     3.5360    -6.2540 o          1 1AE      -0.889500
     14 H11          0.0180    -0.0630     0.0190 hc         1 1AE       0.018700
     15 H12          0.4810    -0.1760    -1.6930 hc         1 1AE       0.018700
     16 H13          1.7170    -0.3390    -0.4230 hc         1 1AE       0.018700
     17 H21          0.0890     2.2100    -0.9940 hc         1 1AE       0.035700
     18 H22          1.3150     2.0480     0.2650 hc         1 1AE       0.035700
     19 H31          3.0740     1.6200    -1.5520 hc         1 1AE       0.061700
     20 H32          1.8970     1.7750    -2.7610 hc         1 1AE       0.061700
     21 HO5          3.0140     5.8510    -2.1390 ho         1 1AE       0.424000
     22 H62          4.0470     2.2110    -3.6110 h4         1 1AE       0.162000
@<TRIPOS>BOND
     1     1     2 1   
     2     1    14 1   
     3     1    15 1   
     4     1    16 1   
     5     2     3 1   
     6     2    17 1   
     7     2    18 1   
     8     3     4 1   
     9     3    19 1   
    10     3    20 1   
    11     4     5 2   
    12     4     6 1   
    13     6     7 1   
    14     6     8 2   
    15     7    21 1   
    16     8     9 1   
    17     8    22 1   
    18     9    10 1   
    19    10    11 1   
    20    10    12 1   
    21    10    13 1   
@<TRIPOS>SUBSTRUCTURE
     1 1AE         1 TEMP              0 ****  ****    0 ROOT
