@<TRIPOS>MOLECULE
1AF
   69    73     1     0     0
SMALL
No Charge or Current Charge


@<TRIPOS>ATOM
      1 C1           8.4860    -2.7780     0.7690 c5         1 1AF      -0.081900
      2 C2           9.7970    -3.4040     0.2180 c5         1 1AF      -0.078900
      3 C3           9.8870    -2.8870    -1.2560 c5         1 1AF      -0.078900
      4 C4           8.7150    -1.8700    -1.4020 c5         1 1AF      -0.081900
      5 C5           8.5010    -1.4050     0.0610 c5         1 1AF       0.169500
      6 N6           7.1500    -0.7980     0.2050 n7         1 1AF      -0.899400
      7 C7           6.8230     0.4260    -0.4860 c3         1 1AF       0.439000
      8 N8           7.6780     1.3420     0.2040 n8         1 1AF      -1.029200
      9 C9           5.3350     0.7920    -0.3570 ca         1 1AF      -0.089300
     10 C12          4.3450    -0.2140    -0.3050 ca         1 1AF      -0.089500
     11 C13          2.9820     0.1200    -0.2110 ca         1 1AF      -0.113000
     12 C10          4.9170     2.1400    -0.3410 ca         1 1AF      -0.089500
     13 C11          3.5540     2.4730    -0.2470 ca         1 1AF      -0.113000
     14 C14          2.5670     1.4660    -0.1770 ca         1 1AF       0.005000
     15 C15          1.1360     1.7880    -0.0780 cc         1 1AF      -0.108000
     16 C17          0.6500     3.0720    -0.0410 cd         1 1AF       0.139900
     17 O18         -0.7240     3.0910     0.0540 os         1 1AF      -0.233000
     18 C16          0.0100     0.9410    -0.0020 cc         1 1AF      -0.164000
     19 C19         -1.0820     1.7630     0.0750 cd         1 1AF       0.188500
     20 C20         -2.5180     1.4280     0.1740 ca         1 1AF      -0.119500
     21 C23         -3.4960     2.4420     0.2470 ca         1 1AF      -0.100000
     22 C24         -4.8610     2.1180     0.3400 ca         1 1AF      -0.093000
     23 C21         -2.9400     0.0830     0.2020 ca         1 1AF      -0.100000
     24 C22         -4.3050    -0.2400     0.2960 ca         1 1AF      -0.093000
     25 C25         -5.2880     0.7720     0.3520 ca         1 1AF      -0.079300
     26 C26         -6.7790     0.4160     0.4800 c3         1 1AF       0.435000
     27 N27         -7.6300     1.3420    -0.2030 n8         1 1AF      -1.029200
     28 N28         -7.1160    -0.8030    -0.2180 n7         1 1AF      -0.897400
     29 C29         -8.4700    -1.4010    -0.0730 c5         1 1AF       0.169500
     30 C30         -8.4660    -2.7700    -0.7880 c5         1 1AF      -0.081400
     31 C31         -9.7810    -3.3890    -0.2390 c5         1 1AF      -0.078900
     32 C32         -9.8630    -2.8810     1.2390 c5         1 1AF      -0.078900
     33 C33         -8.6840    -1.8720     1.3880 c5         1 1AF      -0.081400
     34 H34          8.4940    -2.6900     1.8610 hc         1 1AF       0.050450
     35 H35          7.6100    -3.3780     0.4920 hc         1 1AF       0.050450
     36 H37          9.7830    -4.4980     0.2750 hc         1 1AF       0.042450
     37 H36         10.6630    -3.0670     0.8000 hc         1 1AF       0.042450
     38 H39          9.7990    -3.7030    -1.9830 hc         1 1AF       0.042450
     39 H38         10.8550    -2.4050    -1.4370 hc         1 1AF       0.042450
     40 H41          7.8210    -2.3580    -1.8090 hc         1 1AF       0.050450
     41 H40          8.9680    -1.0430    -2.0750 hc         1 1AF       0.050450
     42 H42          9.3100    -0.7590     0.4300 h1         1 1AF       0.011700
     43 H43          6.8700    -0.7110     1.1830 hn         1 1AF       0.416000
     44 H7           7.1000     0.3680    -1.5500 h2         1 1AF       0.079700
     45 H44          7.3640     1.3860     1.1730 hn         1 1AF       0.399500
     46 H45          8.5950     0.8990     0.2310 hn         1 1AF       0.399500
     47 H48          4.6290    -1.2630    -0.3410 ha         1 1AF       0.129000
     48 H49          2.2510    -0.6810    -0.1680 ha         1 1AF       0.110000
     49 H46          5.6510     2.9410    -0.4060 ha         1 1AF       0.129000
     50 H47          3.2810     3.5240    -0.2340 ha         1 1AF       0.110000
     51 H51          1.1500     4.0310    -0.0720 h4         1 1AF       0.054100
     52 H50          0.0190    -0.1420    -0.0060 ha         1 1AF       0.142000
     53 H54         -3.2060     3.4900     0.2360 ha         1 1AF       0.119000
     54 H55         -5.5890     2.9230     0.4080 ha         1 1AF       0.132000
     55 H52         -2.2130    -0.7250     0.1560 ha         1 1AF       0.119000
     56 H53         -4.5970    -1.2880     0.3280 ha         1 1AF       0.132000
     57 H26         -7.0540     0.3530     1.5440 h2         1 1AF       0.080700
     58 H56         -7.3190     1.3900    -1.1730 hn         1 1AF       0.400000
     59 H57         -8.5500     0.9060    -0.2300 hn         1 1AF       0.400000
     60 H58         -6.8380    -0.7130    -1.1960 hn         1 1AF       0.415000
     61 H59         -9.2760    -0.7480    -0.4370 h1         1 1AF       0.010700
     62 H60         -7.5940    -3.3790    -0.5170 hc         1 1AF       0.048950
     63 H61         -8.4760    -2.6760    -1.8800 hc         1 1AF       0.048950
     64 H62        -10.6460    -3.0410    -0.8160 hc         1 1AF       0.044950
     65 H63         -9.7760    -4.4840    -0.3030 hc         1 1AF       0.044950
     66 H64        -10.8280    -2.3950     1.4270 hc         1 1AF       0.044950
     67 H65         -9.7780    -3.7020     1.9600 hc         1 1AF       0.044950
     68 H67         -8.9310    -1.0470     2.0650 hc         1 1AF       0.048950
     69 H66         -7.7930    -2.3680     1.7900 hc         1 1AF       0.048950
@<TRIPOS>BOND
     1     1     2 1   
     2     1     5 1   
     3     1    34 1   
     4     1    35 1   
     5     2     3 1   
     6     2    36 1   
     7     2    37 1   
     8     3     4 1   
     9     3    38 1   
    10     3    39 1   
    11     4     5 1   
    12     4    40 1   
    13     4    41 1   
    14     5     6 1   
    15     5    42 1   
    16     6     7 1   
    17     6    43 1   
    18     7     8 1   
    19     7     9 1   
    20     7    44 1   
    21     8    45 1   
    22     8    46 1   
    23     9    10 ar  
    24     9    12 ar  
    25    10    11 ar  
    26    10    47 1   
    27    11    14 ar  
    28    11    48 1   
    29    12    13 ar  
    30    12    49 1   
    31    13    14 ar  
    32    13    50 1   
    33    14    15 1   
    34    15    16 2   
    35    15    18 1   
    36    16    17 1   
    37    16    51 1   
    38    17    19 1   
    39    18    19 2   
    40    18    52 1   
    41    19    20 1   
    42    20    21 ar  
    43    20    23 ar  
    44    21    22 ar  
    45    21    53 1   
    46    22    25 ar  
    47    22    54 1   
    48    23    24 ar  
    49    23    55 1   
    50    24    25 ar  
    51    24    56 1   
    52    25    26 1   
    53    26    27 1   
    54    26    28 1   
    55    26    57 1   
    56    27    58 1   
    57    27    59 1   
    58    28    29 1   
    59    28    60 1   
    60    29    30 1   
    61    29    33 1   
    62    29    61 1   
    63    30    31 1   
    64    30    62 1   
    65    30    63 1   
    66    31    32 1   
    67    31    64 1   
    68    31    65 1   
    69    32    33 1   
    70    32    66 1   
    71    32    67 1   
    72    33    68 1   
    73    33    69 1   
@<TRIPOS>SUBSTRUCTURE
     1 1AF         1 TEMP              0 ****  ****    0 ROOT
