@<TRIPOS>MOLECULE
1AF
   69    73     1     0     0
SMALL
abcg2


@<TRIPOS>ATOM
      1 C1           8.4110    -2.7740     0.8780 c5         1 1AF      -0.081900
      2 C2           9.6270    -3.4960     0.2750 c5         1 1AF      -0.078900
      3 C3           9.8400    -2.8620    -1.1200 c5         1 1AF      -0.078900
      4 C4           8.6250    -1.9580    -1.3460 c5         1 1AF      -0.081900
      5 C5           8.2670    -1.4910     0.0630 c5         1 1AF       0.169500
      6 N6           6.9380    -0.9270     0.1810 n7         1 1AF      -0.899400
      7 C7           6.7100     0.3150    -0.5370 c3         1 1AF       0.439000
      8 N8           7.5710     1.4400    -0.2220 n8         1 1AF      -1.029200
      9 C9           5.2500     0.7140    -0.3870 ca         1 1AF      -0.089300
     10 C12          4.2560    -0.2490    -0.2270 ca         1 1AF      -0.089500
     11 C13          2.9220     0.1110    -0.1090 ca         1 1AF      -0.113000
     12 C10          4.8560     2.0500    -0.4390 ca         1 1AF      -0.089500
     13 C11          3.5240     2.4100    -0.3230 ca         1 1AF      -0.113000
     14 C14          2.5290     1.4480    -0.1470 ca         1 1AF       0.005000
     15 C15          1.1210     1.8200    -0.0020 cc         1 1AF      -0.108000
     16 C17          0.6060     3.0670     0.1820 cd         1 1AF       0.139900
     17 O18         -0.7340     3.0140     0.2800 os         1 1AF      -0.233000
     18 C16         -0.0110     0.9460    -0.0120 cc         1 1AF      -0.164000
     19 C19         -1.1130     1.7230     0.1620 cd         1 1AF       0.188500
     20 C20         -2.5330     1.4190     0.2330 ca         1 1AF      -0.119500
     21 C23         -3.4970     2.4200     0.3600 ca         1 1AF      -0.100000
     22 C24         -4.8450     2.1000     0.4170 ca         1 1AF      -0.093000
     23 C21         -2.9660     0.0930     0.1720 ca         1 1AF      -0.100000
     24 C22         -4.3130    -0.2190     0.2280 ca         1 1AF      -0.093000
     25 C25         -5.2810     0.7790     0.3470 ca         1 1AF      -0.079300
     26 C26         -6.7560     0.4270     0.4430 c3         1 1AF       0.435000
     27 N27         -7.5700     1.5830     0.1100 n8         1 1AF      -1.029200
     28 N28         -7.0030    -0.8010    -0.2910 n7         1 1AF      -0.897400
     29 C29         -8.3490    -1.3370    -0.1800 c5         1 1AF       0.169500
     30 C30         -8.5120    -2.6210    -1.0300 c5         1 1AF      -0.081400
     31 C31         -9.0200    -3.7090    -0.0720 c5         1 1AF      -0.078900
     32 C32         -9.6620    -2.9270     1.0720 c5         1 1AF      -0.078900
     33 C33         -8.6970    -1.7600     1.2540 c5         1 1AF      -0.081400
     34 H34          8.5170    -2.5830     1.9480 hc         1 1AF       0.050450
     35 H35          7.5030    -3.3700     0.7440 hc         1 1AF       0.050450
     36 H37          9.4510    -4.5700     0.2080 hc         1 1AF       0.042450
     37 H36         10.5120    -3.3660     0.8990 hc         1 1AF       0.042450
     38 H39          9.9470    -3.6080    -1.9080 hc         1 1AF       0.042450
     39 H38         10.7530    -2.2640    -1.1270 hc         1 1AF       0.042450
     40 H41          7.7830    -2.5280    -1.7510 hc         1 1AF       0.050450
     41 H40          8.8350    -1.1450    -2.0430 hc         1 1AF       0.050450
     42 H42          9.0520    -0.7880     0.3930 h1         1 1AF       0.011700
     43 H43          6.7190    -0.7880     1.1620 hn         1 1AF       0.416000
     44 H7           6.8810     0.0980    -1.5980 h2         1 1AF       0.079700
     45 H44          7.5600     1.6250     0.7750 hn         1 1AF       0.399500
     46 H45          8.5290     1.2290    -0.4690 hn         1 1AF       0.399500
     47 H48          4.5280    -1.2950    -0.1850 ha         1 1AF       0.129000
     48 H49          2.1820    -0.6690     0.0240 ha         1 1AF       0.110000
     49 H46          5.6040     2.8200    -0.5700 ha         1 1AF       0.129000
     50 H47          3.2630     3.4610    -0.3740 ha         1 1AF       0.110000
     51 H51          1.0550     4.0430     0.2700 h4         1 1AF       0.054100
     52 H50         -0.0010    -0.1240    -0.1430 ha         1 1AF       0.142000
     53 H54         -3.2070     3.4610     0.4110 ha         1 1AF       0.119000
     54 H55         -5.5720     2.8940     0.5150 ha         1 1AF       0.132000
     55 H52         -2.2450    -0.7100     0.0820 ha         1 1AF       0.119000
     56 H53         -4.6210    -1.2540     0.1730 ha         1 1AF       0.132000
     57 H26         -6.9670     0.2080     1.4960 h2         1 1AF       0.080700
     58 H56         -7.5310     1.7650    -0.8870 hn         1 1AF       0.400000
     59 H57         -8.5400     1.4070     0.3360 hn         1 1AF       0.400000
     60 H58         -6.7820    -0.6490    -1.2710 hn         1 1AF       0.415000
     61 H59         -9.1060    -0.6100    -0.5110 h1         1 1AF       0.010700
     62 H60         -7.5680    -2.9020    -1.4990 hc         1 1AF       0.048950
     63 H61         -9.2300    -2.4510    -1.8330 hc         1 1AF       0.048950
     64 H62         -9.7010    -4.4120    -0.5540 hc         1 1AF       0.044950
     65 H63         -8.1810    -4.2900     0.3180 hc         1 1AF       0.044950
     66 H64        -10.6490    -2.5600     0.7760 hc         1 1AF       0.044950
     67 H65         -9.7930    -3.5180     1.9800 hc         1 1AF       0.044950
     68 H67         -9.1090    -0.9460     1.8540 hc         1 1AF       0.048950
     69 H66         -7.7870    -2.1100     1.7530 hc         1 1AF       0.048950
@<TRIPOS>BOND
     1     1     2 1   
     2     1     5 1   
     3     1    34 1   
     4     1    35 1   
     5     2     3 1   
     6     2    36 1   
     7     2    37 1   
     8     3     4 1   
     9     3    38 1   
    10     3    39 1   
    11     4     5 1   
    12     4    40 1   
    13     4    41 1   
    14     5     6 1   
    15     5    42 1   
    16     6     7 1   
    17     6    43 1   
    18     7     8 1   
    19     7     9 1   
    20     7    44 1   
    21     8    45 1   
    22     8    46 1   
    23     9    10 ar  
    24     9    12 ar  
    25    10    11 ar  
    26    10    47 1   
    27    11    14 ar  
    28    11    48 1   
    29    12    13 ar  
    30    12    49 1   
    31    13    14 ar  
    32    13    50 1   
    33    14    15 1   
    34    15    16 2   
    35    15    18 1   
    36    16    17 1   
    37    16    51 1   
    38    17    19 1   
    39    18    19 2   
    40    18    52 1   
    41    19    20 1   
    42    20    21 ar  
    43    20    23 ar  
    44    21    22 ar  
    45    21    53 1   
    46    22    25 ar  
    47    22    54 1   
    48    23    24 ar  
    49    23    55 1   
    50    24    25 ar  
    51    24    56 1   
    52    25    26 1   
    53    26    27 1   
    54    26    28 1   
    55    26    57 1   
    56    27    58 1   
    57    27    59 1   
    58    28    29 1   
    59    28    60 1   
    60    29    30 1   
    61    29    33 1   
    62    29    61 1   
    63    30    31 1   
    64    30    62 1   
    65    30    63 1   
    66    31    32 1   
    67    31    64 1   
    68    31    65 1   
    69    32    33 1   
    70    32    66 1   
    71    32    67 1   
    72    33    68 1   
    73    33    69 1   
@<TRIPOS>SUBSTRUCTURE
     1 1AF         1 TEMP              0 ****  ****    0 ROOT
