@<TRIPOS>MOLECULE
1AG
   65    64     1     0     0
SMALL
bcc


@<TRIPOS>ATOM
      1 C01         -6.8880    -0.5460    -0.6780 c          1 1AG       0.641100
      2 O01         -7.7810    -0.5900     0.3060 os         1 1AG      -0.411900
      3 C02         -5.5830    -1.1680    -0.2630 c3         1 1AG      -0.138400
      4 C03         -4.5030    -1.0780    -1.3290 c3         1 1AG      -0.066400
      5 O03         -7.1190    -0.0660    -1.7600 o          1 1AG      -0.539000
      6 C04         -3.1980    -1.7300    -0.8690 c3         1 1AG      -0.044200
      7 C05         -2.1430    -1.6450    -1.9270 c2         1 1AG      -0.169200
      8 C06         -0.9350    -1.0930    -1.8290 c2         1 1AG      -0.159200
      9 C07         -0.3130    -0.4660    -0.6130 c3         1 1AG      -0.012000
     10 C08          0.8410    -1.3020    -0.1370 c2         1 1AG      -0.165200
     11 C09          2.1340    -0.9810    -0.1330 c2         1 1AG      -0.162200
     12 C10          2.7590     0.3180    -0.5530 c3         1 1AG      -0.012000
     13 C11          3.4430     0.9680     0.6160 c2         1 1AG      -0.165200
     14 C12          4.7530     1.1220     0.8020 c2         1 1AG      -0.163200
     15 C13          5.8650     0.7290    -0.1270 c3         1 1AG      -0.012000
     16 C14          6.6200     1.9430    -0.5870 c2         1 1AG      -0.164200
     17 C15          7.8920     2.2510    -0.3390 c2         1 1AG      -0.165200
     18 C16          8.9070     1.4510     0.4150 c3         1 1AG      -0.043200
     19 C17         10.1480     1.1580    -0.4290 c3         1 1AG      -0.073400
     20 C18         11.2030     0.3620     0.3280 c3         1 1AG      -0.076400
     21 C19         12.4570     0.0910    -0.4940 c3         1 1AG      -0.075400
     22 C20         13.4960    -0.7190     0.2680 c3         1 1AG      -0.088100
     23 C21         -9.0760    -0.0450     0.0580 c3         1 1AG       0.105400
     24 C22         -9.8880    -0.1900     1.3340 c3         1 1AG       0.141100
     25 C23        -11.3180     0.2560     1.0730 c3         1 1AG       0.105400
     26 O26         -9.2960     0.4820     2.4180 oh         1 1AG      -0.563800
     27 O27        -12.0830     0.0220     2.2290 oh         1 1AG      -0.579800
     28 H02         -5.2500    -0.6880     0.6620 hc         1 1AG       0.073700
     29 H02A        -5.7760    -2.2130     0.0020 hc         1 1AG       0.073700
     30 H03         -4.8430    -1.5620    -2.2480 hc         1 1AG       0.056200
     31 H03A        -4.3130    -0.0320    -1.5790 hc         1 1AG       0.056200
     32 H04         -2.8630    -1.2680     0.0620 hc         1 1AG       0.045200
     33 H04A        -3.3910    -2.7830    -0.6380 hc         1 1AG       0.045200
     34 H05         -2.4210    -2.0730    -2.8870 ha         1 1AG       0.118000
     35 H06         -0.2950    -1.1130    -2.7060 ha         1 1AG       0.120000
     36 H07          0.0150     0.5470    -0.8570 hc         1 1AG       0.051200
     37 H07A        -1.0450    -0.3710     0.1930 hc         1 1AG       0.051200
     38 H08          0.5670    -2.2930     0.2130 ha         1 1AG       0.118000
     39 H09          2.8360    -1.7250     0.2330 ha         1 1AG       0.119000
     40 H10          3.4700     0.1330    -1.3610 hc         1 1AG       0.051200
     41 H10A         2.0060     0.9990    -0.9550 hc         1 1AG       0.051200
     42 H11          2.7770     1.3180     1.4000 ha         1 1AG       0.119000
     43 H12          5.0770     1.6030     1.7210 ha         1 1AG       0.119000
     44 H13          6.5280     0.0320     0.3900 hc         1 1AG       0.051200
     45 H13A         5.4730     0.1950    -0.9970 hc         1 1AG       0.051200
     46 H14          6.0320     2.6490    -1.1660 ha         1 1AG       0.118000
     47 H15          8.2620     3.1910    -0.7440 ha         1 1AG       0.115000
     48 H16          9.2150     2.0120     1.3050 hc         1 1AG       0.044200
     49 H16A         8.4850     0.5120     0.7780 hc         1 1AG       0.044200
     50 H17          9.8520     0.6100    -1.3290 hc         1 1AG       0.039200
     51 H17A        10.5820     2.1020    -0.7770 hc         1 1AG       0.039200
     52 H18         11.4780     0.9000     1.2420 hc         1 1AG       0.036700
     53 H18A        10.7710    -0.5910     0.6570 hc         1 1AG       0.036700
     54 H19         12.1800    -0.4370    -1.4120 hc         1 1AG       0.036700
     55 H19A        12.8920     1.0430    -0.8130 hc         1 1AG       0.036700
     56 H20         14.3930    -0.8870    -0.3280 hc         1 1AG       0.031367
     57 H20A        13.7980    -0.2060     1.1830 hc         1 1AG       0.031367
     58 H20B        13.1010    -1.6950     0.5550 hc         1 1AG       0.031367
     59 H21         -8.9960     1.0060    -0.2330 h1         1 1AG       0.050700
     60 H21A        -9.5620    -0.5820    -0.7610 h1         1 1AG       0.050700
     61 H22         -9.9070    -1.2490     1.6140 h1         1 1AG       0.097700
     62 H23        -11.3220     1.3200     0.7910 h1         1 1AG       0.021200
     63 HO26        -9.3130     1.4290     2.2440 ho         1 1AG       0.397000
     64 H37        -12.9810     0.3180     2.0560 ho         1 1AG       0.406000
     65 H38        -11.7050    -0.2990     0.2090 h1         1 1AG       0.021200
@<TRIPOS>BOND
     1     1     2 1   
     2     1     3 1   
     3     1     5 2   
     4     2    23 1   
     5     3     4 1   
     6     3    28 1   
     7     3    29 1   
     8     4     6 1   
     9     4    30 1   
    10     4    31 1   
    11     6     7 1   
    12     6    32 1   
    13     6    33 1   
    14     7     8 2   
    15     7    34 1   
    16     8     9 1   
    17     8    35 1   
    18     9    10 1   
    19     9    36 1   
    20     9    37 1   
    21    10    11 2   
    22    10    38 1   
    23    11    12 1   
    24    11    39 1   
    25    12    13 1   
    26    12    40 1   
    27    12    41 1   
    28    13    14 2   
    29    13    42 1   
    30    14    15 1   
    31    14    43 1   
    32    15    16 1   
    33    15    44 1   
    34    15    45 1   
    35    16    17 2   
    36    16    46 1   
    37    17    18 1   
    38    17    47 1   
    39    18    19 1   
    40    18    48 1   
    41    18    49 1   
    42    19    20 1   
    43    19    50 1   
    44    19    51 1   
    45    20    21 1   
    46    20    52 1   
    47    20    53 1   
    48    21    22 1   
    49    21    54 1   
    50    21    55 1   
    51    22    56 1   
    52    22    57 1   
    53    22    58 1   
    54    23    24 1   
    55    23    59 1   
    56    23    60 1   
    57    24    25 1   
    58    24    26 1   
    59    24    61 1   
    60    25    27 1   
    61    25    62 1   
    62    25    65 1   
    63    26    63 1   
    64    27    64 1   
@<TRIPOS>SUBSTRUCTURE
     1 1AG         1 TEMP              0 ****  ****    0 ROOT
