@<TRIPOS>MOLECULE
1AG
   65    64     1     0     0
SMALL
No Charge or Current Charge


@<TRIPOS>ATOM
      1 C01         -5.3510     0.2280     0.7870 c          1 1AG       0.592100
      2 O01         -6.5770     0.0040     0.2190 os         1 1AG      -0.435100
      3 C02         -4.6830    -1.0750     1.2320 c3         1 1AG      -0.138400
      4 C03         -3.7180    -1.6100     0.1470 c3         1 1AG      -0.066400
      5 O03         -4.8390     1.3320     0.9200 o          1 1AG      -0.490000
      6 C04         -3.0190    -2.9240     0.5540 c3         1 1AG      -0.044200
      7 C05         -2.0680    -3.4220    -0.5180 c2         1 1AG      -0.219200
      8 C06         -0.7740    -3.0870    -0.6730 c2         1 1AG      -0.209200
      9 C07          0.0310    -2.1070     0.1610 c3         1 1AG      -0.012000
     10 C08          1.2080    -2.7980     0.8220 c2         1 1AG      -0.215200
     11 C09          2.3920    -2.2480     1.1460 c2         1 1AG      -0.212200
     12 C10          2.8200    -0.8070     0.9420 c3         1 1AG      -0.012000
     13 C11          3.5720    -0.2900     2.1550 c2         1 1AG      -0.215200
     14 C12          4.6560     0.5070     2.1590 c2         1 1AG      -0.213200
     15 C13          5.3640     1.0910     0.9510 c3         1 1AG      -0.012000
     16 C14          5.9760     2.4390     1.2830 c2         1 1AG      -0.214200
     17 C15          7.2730     2.7900     1.2070 c2         1 1AG      -0.215200
     18 C16          8.4390     1.9060     0.8050 c3         1 1AG      -0.043200
     19 C17          8.6710     1.9040    -0.7200 c3         1 1AG      -0.073400
     20 C18          9.8540     1.0090    -1.1520 c3         1 1AG      -0.076400
     21 C19         10.0800     1.0020    -2.6800 c3         1 1AG      -0.075400
     22 C20         11.2620     0.1130    -3.1110 c3         1 1AG      -0.088100
     23 C21         -7.3280     1.1440    -0.2500 c3         1 1AG       0.128600
     24 C22         -8.6800     0.6530    -0.8290 c3         1 1AG       0.164300
     25 C23         -9.4750     1.8010    -1.5040 c3         1 1AG       0.128600
     26 O26         -9.5000     0.0760     0.2070 oh         1 1AG      -0.626000
     27 O27        -10.7460     1.3180    -1.9730 oh         1 1AG      -0.642000
     28 H02         -4.1210    -0.8940     2.1550 hc         1 1AG       0.073700
     29 H02A        -5.4550    -1.8370     1.3920 hc         1 1AG       0.073700
     30 H03         -4.2740    -1.7730    -0.7850 hc         1 1AG       0.056200
     31 H03A        -2.9560    -0.8500    -0.0650 hc         1 1AG       0.056200
     32 H04         -2.4850    -2.7700     1.5000 hc         1 1AG       0.045200
     33 H04A        -3.7770    -3.6900     0.7590 hc         1 1AG       0.045200
     34 H05         -2.5220    -4.1380    -1.2070 ha         1 1AG       0.168000
     35 H06         -0.2010    -3.5300    -1.4910 ha         1 1AG       0.170000
     36 H07          0.3760    -1.2920    -0.4860 hc         1 1AG       0.051200
     37 H07A        -0.5910    -1.6350     0.9300 hc         1 1AG       0.051200
     38 H08          1.0330    -3.8550     1.0380 ha         1 1AG       0.168000
     39 H09          3.1600    -2.8700     1.6130 ha         1 1AG       0.169000
     40 H10          3.4420    -0.7440     0.0420 hc         1 1AG       0.051200
     41 H10A         1.9510    -0.1630     0.7620 hc         1 1AG       0.051200
     42 H11          3.1560    -0.6300     3.1060 ha         1 1AG       0.169000
     43 H12          5.1040     0.7950     3.1120 ha         1 1AG       0.169000
     44 H13          6.1250     0.3840     0.6000 hc         1 1AG       0.051200
     45 H13A         4.6640     1.2150     0.1160 hc         1 1AG       0.051200
     46 H14          5.2390     3.1830     1.5950 ha         1 1AG       0.168000
     47 H15          7.5670     3.8090     1.4670 ha         1 1AG       0.165000
     48 H16          9.3510     2.2490     1.3100 hc         1 1AG       0.044200
     49 H16A         8.2780     0.8770     1.1460 hc         1 1AG       0.044200
     50 H17          7.7580     1.5610    -1.2210 hc         1 1AG       0.039200
     51 H17A         8.8530     2.9320    -1.0570 hc         1 1AG       0.039200
     52 H18         10.7680     1.3550    -0.6540 hc         1 1AG       0.036700
     53 H18A         9.6730    -0.0180    -0.8110 hc         1 1AG       0.036700
     54 H19          9.1690     0.6510    -3.1800 hc         1 1AG       0.036700
     55 H19A        10.2610     2.0270    -3.0250 hc         1 1AG       0.036700
     56 H20         11.3830     0.1390    -4.2000 hc         1 1AG       0.031367
     57 H20A        12.1960     0.4600    -2.6530 hc         1 1AG       0.031367
     58 H20B        11.0950    -0.9290    -2.8100 hc         1 1AG       0.031367
     59 H21         -7.5170     1.8530     0.5680 h1         1 1AG       0.050700
     60 H21A        -6.7700     1.6710    -1.0360 h1         1 1AG       0.050700
     61 H22         -8.4610    -0.0970    -1.6030 h1         1 1AG       0.097700
     62 H23         -9.6200     2.6180    -0.7840 h1         1 1AG       0.021200
     63 HO26       -10.4150     0.1090    -0.1530 ho         1 1AG       0.436000
     64 H37        -11.1890     2.0650    -2.4340 ho         1 1AG       0.445000
     65 H38         -8.8880     2.1980    -2.3430 h1         1 1AG       0.021200
@<TRIPOS>BOND
     1     1     2 1   
     2     1     3 1   
     3     1     5 2   
     4     2    23 1   
     5     3     4 1   
     6     3    28 1   
     7     3    29 1   
     8     4     6 1   
     9     4    30 1   
    10     4    31 1   
    11     6     7 1   
    12     6    32 1   
    13     6    33 1   
    14     7     8 2   
    15     7    34 1   
    16     8     9 1   
    17     8    35 1   
    18     9    10 1   
    19     9    36 1   
    20     9    37 1   
    21    10    11 2   
    22    10    38 1   
    23    11    12 1   
    24    11    39 1   
    25    12    13 1   
    26    12    40 1   
    27    12    41 1   
    28    13    14 2   
    29    13    42 1   
    30    14    15 1   
    31    14    43 1   
    32    15    16 1   
    33    15    44 1   
    34    15    45 1   
    35    16    17 2   
    36    16    46 1   
    37    17    18 1   
    38    17    47 1   
    39    18    19 1   
    40    18    48 1   
    41    18    49 1   
    42    19    20 1   
    43    19    50 1   
    44    19    51 1   
    45    20    21 1   
    46    20    52 1   
    47    20    53 1   
    48    21    22 1   
    49    21    54 1   
    50    21    55 1   
    51    22    56 1   
    52    22    57 1   
    53    22    58 1   
    54    23    24 1   
    55    23    59 1   
    56    23    60 1   
    57    24    25 1   
    58    24    26 1   
    59    24    61 1   
    60    25    27 1   
    61    25    62 1   
    62    25    65 1   
    63    26    63 1   
    64    27    64 1   
@<TRIPOS>SUBSTRUCTURE
     1 1AG         1 TEMP              0 ****  ****    0 ROOT
