@<TRIPOS>MOLECULE
1AH
   86    89     1     0     0
SMALL
bcc


@<TRIPOS>ATOM
      1 C23          3.7930     0.2450     2.2530 ca         1 1AH      -0.094300
      2 C24          4.5690    -0.8900     2.0290 ca         1 1AH      -0.128000
      3 C25          5.4790    -1.3370     2.9780 ca         1 1AH      -0.131000
      4 C26          5.6330    -0.6530     4.1760 ca         1 1AH      -0.128000
      5 C27          4.8810     0.4910     4.4070 ca         1 1AH      -0.131000
      6 C28          3.9750     0.9350     3.4540 ca         1 1AH      -0.128000
      7 C33         -1.3330    -2.0900    -0.4340 ca         1 1AH      -0.085300
      8 C34         -1.5590    -0.9570    -1.2110 ca         1 1AH      -0.116000
      9 C35         -2.8440    -0.4950    -1.4460 ca         1 1AH      -0.106500
     10 C36         -3.9210    -1.1740    -0.8950 ca         1 1AH      -0.009900
     11 C37         -3.7250    -2.2950    -0.1040 ca         1 1AH      -0.106500
     12 C38         -2.4290    -2.7400     0.1240 ca         1 1AH      -0.116000
     13 C32          0.0450    -2.6710    -0.2750 c3         1 1AH       0.183100
     14 C7           5.5590     3.2330    -2.2570 c3         1 1AH       0.148700
     15 C4           1.0060    -1.1530     1.3370 c3         1 1AH       0.117800
     16 O3           3.1220     2.1540    -2.2690 o          1 1AH      -0.568000
     17 N1           4.0380     0.0610    -2.2770 ns         1 1AH      -0.573900
     18 C22          2.7910     0.7400     1.2430 c3         1 1AH      -0.044100
     19 O6           1.0320     0.6190     2.9170 oh         1 1AH      -0.604800
     20 O8           5.3490     1.8270    -2.2600 os         1 1AH      -0.439900
     21 C10          0.3710     1.1710     0.7180 c          1 1AH       0.679100
     22 O11          0.6350     1.4760    -0.4330 o          1 1AH      -0.589100
     23 N12         -0.7870     1.4810     1.3190 ns         1 1AH      -0.538900
     24 C51         -1.8550     2.1740     0.6580 c5         1 1AH       0.167000
     25 C52         -3.2050     1.8640     1.2440 ca         1 1AH      -0.103300
     26 C57         -4.0280     2.9800     1.1400 ca         1 1AH      -0.073300
     27 C53         -3.6600     0.6860     1.8060 ca         1 1AH      -0.105000
     28 C54         -4.9690     0.6340     2.2740 ca         1 1AH      -0.128000
     29 C55         -5.7970     1.7460     2.1710 ca         1 1AH      -0.122000
     30 C59         -1.8040     3.7150     0.7190 c5         1 1AH       0.124100
     31 O60         -1.3530     4.0670     2.0040 oh         1 1AH      -0.585800
     32 C30          4.0740     1.4080    -2.2700 c          1 1AH       0.752100
     33 C56         -5.3320     2.9280     1.6020 ca         1 1AH      -0.113000
     34 C58         -3.2730     4.1090     0.4960 c5         1 1AH      -0.072100
     35 C41          2.8360    -0.7450    -2.2570 c3         1 1AH       0.074700
     36 C42          2.4170    -1.2290    -3.6780 c3         1 1AH      -0.052000
     37 C43          3.5770    -1.8740    -4.4400 c3         1 1AH      -0.088100
     38 C1           1.3380     0.3380     1.5690 c3         1 1AH       0.097800
     39 C44          1.2790    -2.2430    -3.5720 c3         1 1AH      -0.088100
     40 C45          3.1570    -1.9050    -1.3160 c          1 1AH       0.678100
     41 O46          4.1980    -2.5360    -1.4440 o          1 1AH      -0.612100
     42 N47          2.3280    -2.2070    -0.2940 ns         1 1AH      -0.459300
     43 BR          -5.6710    -0.5480    -1.2110 br         1 1AH      -0.091100
     44 C86          1.9160    -0.0180    -4.4680 c3         1 1AH      -0.088100
     45 H24          4.4880    -1.4300     1.0950 ha         1 1AH       0.138500
     46 H25          6.0710    -2.2210     2.7780 ha         1 1AH       0.132000
     47 H26          6.3400    -1.0020     4.9170 ha         1 1AH       0.131000
     48 H27          5.0010     1.0430     5.3300 ha         1 1AH       0.132000
     49 H28          3.4130     1.8420     3.6430 ha         1 1AH       0.138500
     50 H34         -0.7240    -0.4160    -1.6360 ha         1 1AH       0.147500
     51 H35         -2.9930     0.3850    -2.0570 ha         1 1AH       0.149500
     52 H37         -4.5590    -2.8160     0.3450 ha         1 1AH       0.149500
     53 H38         -2.2780    -3.6130     0.7470 ha         1 1AH       0.147500
     54 H321         0.3100    -3.1900    -1.1960 h1         1 1AH       0.052700
     55 H322         0.0350    -3.4340     0.5170 h1         1 1AH       0.052700
     56 H7C1         6.6370     3.3730    -2.2670 h1         1 1AH       0.045367
     57 H7C2         5.1310     3.7110    -3.1390 h1         1 1AH       0.045367
     58 H7C3         5.1480     3.7030    -1.3630 h1         1 1AH       0.045367
     59 H4C1        -0.0220    -1.2910     1.6780 h1         1 1AH       0.052700
     60 H4C2         1.6320    -1.7600     2.0080 h1         1 1AH       0.052700
     61 H1           4.9170    -0.4320    -2.3240 hn         1 1AH       0.339500
     62 H221         3.0480     0.3940     0.2450 hc         1 1AH       0.078200
     63 H222         2.8410     1.8310     1.2040 hc         1 1AH       0.078200
     64 H6           1.5240     0.0200     3.4890 ho         1 1AH       0.421000
     65 H12         -0.8780     1.2940     2.3050 hn         1 1AH       0.342500
     66 H51         -1.8470     1.8820    -0.3970 h1         1 1AH       0.083700
     67 H53         -3.0130    -0.1800     1.8830 ha         1 1AH       0.134000
     68 H54         -5.3450    -0.2780     2.7200 ha         1 1AH       0.129000
     69 H55         -6.8130     1.6940     2.5430 ha         1 1AH       0.129000
     70 H59         -1.1500     4.1240    -0.0590 h1         1 1AH       0.057700
     71 H60         -1.3580     5.0270     2.0710 ho         1 1AH       0.402000
     72 H56         -5.9820     3.7920     1.5340 ha         1 1AH       0.132000
     73 H581        -3.5110     5.0960     0.9000 hc         1 1AH       0.058700
     74 H582        -3.4850     4.1470    -0.5780 hc         1 1AH       0.058700
     75 H41          2.0230    -0.1480    -1.8410 h1         1 1AH       0.123700
     76 H431         3.9170    -2.7960    -3.9700 hc         1 1AH       0.039033
     77 H432         3.2490    -2.1230    -5.4510 hc         1 1AH       0.039033
     78 H433         4.4300    -1.2020    -4.5330 hc         1 1AH       0.039033
     79 H441         0.4150    -1.8300    -3.0500 hc         1 1AH       0.039033
     80 H442         0.9460    -2.5340    -4.5690 hc         1 1AH       0.039033
     81 H443         1.5860    -3.1570    -3.0610 hc         1 1AH       0.039033
     82 H47          2.6120    -3.0070     0.2650 hn         1 1AH       0.300500
     83 H861         2.6980     0.7250    -4.6230 hc         1 1AH       0.039033
     84 H862         1.5700    -0.3350    -5.4540 hc         1 1AH       0.039033
     85 H863         1.0830     0.4730    -3.9620 hc         1 1AH       0.039033
     86 N24          1.0830    -1.6630    -0.0320 n3         1 1AH      -0.432600
@<TRIPOS>BOND
     1     1     2 ar  
     2     1     6 ar  
     3     1    18 1   
     4     2     3 ar  
     5     2    45 1   
     6     3     4 ar  
     7     3    46 1   
     8     4     5 ar  
     9     4    47 1   
    10     5     6 ar  
    11     5    48 1   
    12     6    49 1   
    13     7     8 ar  
    14     7    12 ar  
    15     7    13 1   
    16     8     9 ar  
    17     8    50 1   
    18     9    10 ar  
    19     9    51 1   
    20    10    11 ar  
    21    10    43 1   
    22    11    12 ar  
    23    11    52 1   
    24    12    53 1   
    25    13    54 1   
    26    13    55 1   
    27    13    86 1   
    28    14    20 1   
    29    14    56 1   
    30    14    57 1   
    31    14    58 1   
    32    15    38 1   
    33    15    59 1   
    34    15    60 1   
    35    15    86 1   
    36    16    32 2   
    37    17    32 1   
    38    17    35 1   
    39    17    61 1   
    40    18    38 1   
    41    18    62 1   
    42    18    63 1   
    43    19    38 1   
    44    19    64 1   
    45    20    32 1   
    46    21    22 2   
    47    21    23 1   
    48    21    38 1   
    49    23    24 1   
    50    23    65 1   
    51    24    25 1   
    52    24    30 1   
    53    24    66 1   
    54    25    26 ar  
    55    25    27 ar  
    56    26    33 ar  
    57    26    34 1   
    58    27    28 ar  
    59    27    67 1   
    60    28    29 ar  
    61    28    68 1   
    62    29    33 ar  
    63    29    69 1   
    64    30    31 1   
    65    30    34 1   
    66    30    70 1   
    67    31    71 1   
    68    33    72 1   
    69    34    73 1   
    70    34    74 1   
    71    35    36 1   
    72    35    40 1   
    73    35    75 1   
    74    36    37 1   
    75    36    39 1   
    76    36    44 1   
    77    37    76 1   
    78    37    77 1   
    79    37    78 1   
    80    39    79 1   
    81    39    80 1   
    82    39    81 1   
    83    40    41 2   
    84    40    42 1   
    85    42    82 1   
    86    42    86 1   
    87    44    83 1   
    88    44    84 1   
    89    44    85 1   
@<TRIPOS>SUBSTRUCTURE
     1 1AH         1 TEMP              0 ****  ****    0 ROOT
