@<TRIPOS>MOLECULE
1AH
   86    89     1     0     0
SMALL
No Charge or Current Charge


@<TRIPOS>ATOM
      1 C23          3.5520     0.2500     2.2900 ca         1 1AH      -0.094300
      2 C24          4.3470    -0.9070     2.1750 ca         1 1AH      -0.110000
      3 C25          5.3100    -1.2080     3.1540 ca         1 1AH      -0.113000
      4 C26          5.4880    -0.3520     4.2530 ca         1 1AH      -0.110000
      5 C27          4.7060     0.8090     4.3690 ca         1 1AH      -0.113000
      6 C28          3.7440     1.1110     3.3900 ca         1 1AH      -0.110000
      7 C33         -1.3190    -2.3690    -0.6500 ca         1 1AH      -0.085300
      8 C34         -1.6980    -1.4140    -1.6140 ca         1 1AH      -0.098000
      9 C35         -3.0000    -0.8850    -1.6210 ca         1 1AH      -0.088500
     10 C36         -3.9300    -1.3020    -0.6570 ca         1 1AH      -0.009900
     11 C37         -3.5630    -2.2510     0.3110 ca         1 1AH      -0.088500
     12 C38         -2.2620    -2.7850     0.3130 ca         1 1AH      -0.098000
     13 C32          0.0900    -2.9610    -0.6620 c3         1 1AH       0.183100
     14 C7           5.3040     3.5100    -1.9550 c3         1 1AH       0.171900
     15 C4           1.0290    -1.5730     1.1810 c3         1 1AH       0.117800
     16 O3           2.9210     2.1300    -2.1200 o          1 1AH      -0.519000
     17 N1           4.1130     0.1690    -2.2300 ns         1 1AH      -0.506900
     18 C22          2.5000     0.5870     1.2300 c3         1 1AH      -0.044100
     19 O6           0.8090     0.1220     2.8960 oh         1 1AH      -0.667000
     20 O8           5.2180     2.0780    -2.0690 os         1 1AH      -0.463100
     21 C10          0.0130     0.6870     0.6020 c          1 1AH       0.612100
     22 O11          0.1670     0.9630    -0.5840 o          1 1AH      -0.589100
     23 N12         -1.1090     1.0730     1.3060 ns         1 1AH      -0.471900
     24 C51         -2.1550     1.8380     0.6220 c5         1 1AH       0.167000
     25 C52         -3.4330     2.0040     1.4030 ca         1 1AH      -0.103300
     26 C57         -3.9110     3.2970     1.3360 ca         1 1AH      -0.073300
     27 C53         -4.1240     1.0140     2.1220 ca         1 1AH      -0.087000
     28 C54         -5.3230     1.3590     2.7740 ca         1 1AH      -0.110000
     29 C55         -5.8140     2.6800     2.7010 ca         1 1AH      -0.104000
     30 C59         -1.6680     3.3610     0.5260 c5         1 1AH       0.147300
     31 O60         -0.8340     3.7780     1.6240 oh         1 1AH      -0.648000
     32 C30          3.9780     1.5230    -2.1400 c          1 1AH       0.636100
     33 C56         -5.1060     3.6600     1.9780 ca         1 1AH      -0.095000
     34 C58         -3.0130     4.1920     0.5200 c5         1 1AH      -0.072100
     35 C41          3.0030    -0.8140    -2.3220 c3         1 1AH       0.074700
     36 C42          2.7100    -1.2000    -3.8270 c3         1 1AH      -0.052000
     37 C43          4.0020    -1.6410    -4.5760 c3         1 1AH      -0.088100
     38 C1           1.0970    -0.0430     1.4780 c3         1 1AH       0.121000
     39 C44          1.6850    -2.3610    -3.9150 c3         1 1AH      -0.088100
     40 C45          3.3800    -2.0350    -1.4130 c          1 1AH       0.611100
     41 O46          4.4960    -2.5400    -1.4400 o          1 1AH      -0.612100
     42 N47          2.4450    -2.5480    -0.5160 ns         1 1AH      -0.392300
     43 Br          -5.6990    -0.5760    -0.6650 br         1 1AH      -0.091100
     44 C86          2.1040     0.0210    -4.5720 c3         1 1AH      -0.088100
     45 H24          4.2260    -1.5750     1.3280 ha         1 1AH       0.120500
     46 H25          5.9190    -2.1050     3.0590 ha         1 1AH       0.114000
     47 H26          6.2340    -0.5850     5.0100 ha         1 1AH       0.113000
     48 H27          4.8470     1.4760     5.2170 ha         1 1AH       0.114000
     49 H28          3.1480     2.0160     3.4890 ha         1 1AH       0.120500
     50 H34         -0.9810    -1.0720    -2.3560 ha         1 1AH       0.129500
     51 H35         -3.2830    -0.1480    -2.3690 ha         1 1AH       0.131500
     52 H37         -4.2850    -2.5760     1.0570 ha         1 1AH       0.131500
     53 H38         -1.9880    -3.5240     1.0640 ha         1 1AH       0.129500
     54 H321         0.2910    -3.3270    -1.6750 h1         1 1AH       0.052700
     55 H322         0.1150    -3.8440    -0.0090 h1         1 1AH       0.052700
     56 H7C1         6.3530     3.8270    -1.9060 h1         1 1AH       0.045367
     57 H7C2         4.8390     4.0000    -2.8210 h1         1 1AH       0.045367
     58 H7C3         4.7990     3.8600    -1.0450 h1         1 1AH       0.045367
     59 H4C1         0.0640    -1.9120     1.5800 h1         1 1AH       0.052700
     60 H4C2         1.7840    -2.0860     1.7920 h1         1 1AH       0.052700
     61 H1           5.0640    -0.1780    -2.2190 hn         1 1AH       0.339500
     62 H221         2.8590     0.2890     0.2430 hc         1 1AH       0.078200
     63 H222         2.3840     1.6770     1.1740 hc         1 1AH       0.078200
     64 H6           1.6620     0.0010     3.3700 ho         1 1AH       0.460000
     65 H12         -1.0850     0.8970     2.3030 hn         1 1AH       0.342500
     66 H51         -2.3830     1.4400    -0.3760 h1         1 1AH       0.083700
     67 H53         -3.7420    -0.0030     2.1720 ha         1 1AH       0.116000
     68 H54         -5.8730     0.6060     3.3330 ha         1 1AH       0.111000
     69 H55         -6.7420     2.9430     3.2040 ha         1 1AH       0.111000
     70 H59         -1.1200     3.5180    -0.4140 h1         1 1AH       0.057700
     71 H60         -0.6370     4.7290     1.4880 ho         1 1AH       0.441000
     72 H56         -5.4780     4.6800     1.9180 ha         1 1AH       0.114000
     73 H581        -2.8970     5.1940     0.9480 hc         1 1AH       0.058700
     74 H582        -3.3980     4.3130    -0.4990 hc         1 1AH       0.058700
     75 H41          2.0980    -0.3650    -1.8970 h1         1 1AH       0.123700
     76 H431         4.4560    -2.5220    -4.1080 hc         1 1AH       0.039033
     77 H432         3.7770    -1.9020    -5.6170 hc         1 1AH       0.039033
     78 H433         4.7520    -0.8410    -4.5970 hc         1 1AH       0.039033
     79 H441         0.7340    -2.0720    -3.4590 hc         1 1AH       0.039033
     80 H442         1.4800    -2.6230    -4.9600 hc         1 1AH       0.039033
     81 H443         2.0520    -3.2660    -3.4170 hc         1 1AH       0.039033
     82 H47          2.7540    -3.3580     0.0140 hn         1 1AH       0.300500
     83 H861         2.8240     0.8440    -4.6450 hc         1 1AH       0.039033
     84 H862         1.8110    -0.2480    -5.5950 hc         1 1AH       0.039033
     85 H863         1.2110     0.3930    -4.0550 hc         1 1AH       0.039033
     86 N24          1.1470    -2.0030    -0.2470 n3         1 1AH      -0.432600
@<TRIPOS>BOND
     1     1     2 ar  
     2     1     6 ar  
     3     1    18 1   
     4     2     3 ar  
     5     2    45 1   
     6     3     4 ar  
     7     3    46 1   
     8     4     5 ar  
     9     4    47 1   
    10     5     6 ar  
    11     5    48 1   
    12     6    49 1   
    13     7     8 ar  
    14     7    12 ar  
    15     7    13 1   
    16     8     9 ar  
    17     8    50 1   
    18     9    10 ar  
    19     9    51 1   
    20    10    11 ar  
    21    10    43 1   
    22    11    12 ar  
    23    11    52 1   
    24    12    53 1   
    25    13    54 1   
    26    13    55 1   
    27    13    86 1   
    28    14    20 1   
    29    14    56 1   
    30    14    57 1   
    31    14    58 1   
    32    15    38 1   
    33    15    59 1   
    34    15    60 1   
    35    15    86 1   
    36    16    32 2   
    37    17    32 1   
    38    17    35 1   
    39    17    61 1   
    40    18    38 1   
    41    18    62 1   
    42    18    63 1   
    43    19    38 1   
    44    19    64 1   
    45    20    32 1   
    46    21    22 2   
    47    21    23 1   
    48    21    38 1   
    49    23    24 1   
    50    23    65 1   
    51    24    25 1   
    52    24    30 1   
    53    24    66 1   
    54    25    26 ar  
    55    25    27 ar  
    56    26    33 ar  
    57    26    34 1   
    58    27    28 ar  
    59    27    67 1   
    60    28    29 ar  
    61    28    68 1   
    62    29    33 ar  
    63    29    69 1   
    64    30    31 1   
    65    30    34 1   
    66    30    70 1   
    67    31    71 1   
    68    33    72 1   
    69    34    73 1   
    70    34    74 1   
    71    35    36 1   
    72    35    40 1   
    73    35    75 1   
    74    36    37 1   
    75    36    39 1   
    76    36    44 1   
    77    37    76 1   
    78    37    77 1   
    79    37    78 1   
    80    39    79 1   
    81    39    80 1   
    82    39    81 1   
    83    40    41 2   
    84    40    42 1   
    85    42    82 1   
    86    42    86 1   
    87    44    83 1   
    88    44    84 1   
    89    44    85 1   
@<TRIPOS>SUBSTRUCTURE
     1 1AH         1 TEMP              0 ****  ****    0 ROOT
