@<TRIPOS>MOLECULE
1AI
   48    50     1     0     0
SMALL
No Charge or Current Charge


@<TRIPOS>ATOM
      1 C11          1.4700    35.6210    29.5920 c3         1 1AI       0.279100
      2 C12          1.6800    34.9600    28.2240 ca         1 1AI      -0.095300
      3 C13          2.1080    33.6120    28.0840 ca         1 1AI      -0.071300
      4 C14          2.2870    33.0720    26.7940 ca         1 1AI      -0.108000
      5 C15          2.0440    33.8480    25.6500 ca         1 1AI      -0.108000
      6 C16          1.6140    35.1740    25.7850 ca         1 1AI      -0.111000
      7 C17          1.4310    35.7250    27.0630 ca         1 1AI      -0.096000
      8 C18          2.3740    32.7200    29.2940 c3         1 1AI      -0.049800
      9 C19          4.7320    40.6210    26.7780 c3         1 1AI       0.148300
     10 C2           4.6490    37.5990    29.1590 ca         1 1AI       0.150500
     11 C20          6.0100    41.3150    26.3160 ca         1 1AI      -0.115300
     12 C21          6.6630    42.2860    27.1170 ca         1 1AI      -0.048300
     13 C22          7.8430    42.8950    26.6430 ca         1 1AI      -0.116000
     14 C23          8.3750    42.5470    25.3910 ca         1 1AI      -0.099000
     15 C24          7.7310    41.5830    24.6010 ca         1 1AI      -0.117000
     16 C25          6.5550    40.9710    25.0620 ca         1 1AI      -0.097000
     17 C26          6.1170    42.6880    28.4850 c3         1 1AI      -0.052800
     18 C3           3.7530    36.7030    29.8350 ca         1 1AI       0.627900
     19 C5           5.5360    35.5780    30.7360 ca         1 1AI       0.373900
     20 C6           6.4390    36.4490    30.0700 ca         1 1AI       0.204900
     21 N1           6.0160    37.4690    29.2760 nb         1 1AI      -0.611000
     22 N10          2.3710    36.7730    29.7530 nu         1 1AI      -0.914100
     23 N4           4.1850    35.6990    30.6250 nb         1 1AI      -0.732000
     24 N9           5.0330    39.4910    27.6510 ns         1 1AI      -0.475900
     25 O8           2.8910    38.9470    28.1580 o          1 1AI      -0.651100
     26 H1           1.6150    34.9070    30.4130 h1         1 1AI       0.063700
     27 H2           0.4260    35.9590    29.6530 h1         1 1AI       0.063700
     28 H3           2.6160    32.0420    26.6740 ha         1 1AI       0.109000
     29 H4           2.1860    33.4180    24.6610 ha         1 1AI       0.112000
     30 H5           1.4210    35.7770    24.9000 ha         1 1AI       0.112000
     31 H6           1.0940    36.7550    27.1500 ha         1 1AI       0.115000
     32 H7           3.1770    33.1260    29.9190 hc         1 1AI       0.041700
     33 H8           1.4760    32.6180    29.9150 hc         1 1AI       0.041700
     34 H9           2.6760    31.7080    28.9960 hc         1 1AI       0.041700
     35 H10          4.0840    41.3280    27.3110 h1         1 1AI       0.061200
     36 H11          4.1730    40.2530    25.9080 h1         1 1AI       0.061200
     37 H12          8.3520    43.6430    27.2470 ha         1 1AI       0.112000
     38 H13          9.2860    43.0230    25.0350 ha         1 1AI       0.113000
     39 H14          8.1420    41.3110    23.6320 ha         1 1AI       0.114000
     40 H15          6.0650    40.2230    24.4420 ha         1 1AI       0.110000
     41 H16          5.9900    41.8150    29.1350 hc         1 1AI       0.047033
     42 H17          6.7890    43.3820    29.0030 hc         1 1AI       0.047033
     43 H18          5.1440    43.1850    28.3910 hc         1 1AI       0.047033
     44 H19          5.9050    34.7720    31.3670 h4         1 1AI       0.027100
     45 H20          7.5150    36.3240    30.1800 h4         1 1AI       0.033100
     46 H21          2.1030    37.6010    29.2070 hn         1 1AI       0.541000
     47 H22          6.0020    39.2400    27.8170 hn         1 1AI       0.344500
     48 C7           4.0900    38.7190    28.2920 c          1 1AI       0.526600
@<TRIPOS>BOND
     1     1     2 1   
     2     1    22 1   
     3     1    26 1   
     4     1    27 1   
     5     2     3 ar  
     6     2     7 ar  
     7     3     4 ar  
     8     3     8 1   
     9     4     5 ar  
    10     4    28 1   
    11     5     6 ar  
    12     5    29 1   
    13     6     7 ar  
    14     6    30 1   
    15     7    31 1   
    16     8    32 1   
    17     8    33 1   
    18     8    34 1   
    19     9    11 1   
    20     9    24 1   
    21     9    35 1   
    22     9    36 1   
    23    10    18 ar  
    24    10    21 ar  
    25    10    48 1   
    26    11    12 ar  
    27    11    16 ar  
    28    12    13 ar  
    29    12    17 1   
    30    13    14 ar  
    31    13    37 1   
    32    14    15 ar  
    33    14    38 1   
    34    15    16 ar  
    35    15    39 1   
    36    16    40 1   
    37    17    41 1   
    38    17    42 1   
    39    17    43 1   
    40    18    22 1   
    41    18    23 ar  
    42    19    20 ar  
    43    19    23 ar  
    44    19    44 1   
    45    20    21 ar  
    46    20    45 1   
    47    22    46 1   
    48    24    47 1   
    49    24    48 1   
    50    25    48 2   
@<TRIPOS>SUBSTRUCTURE
     1 1AI         1 TEMP              0 ****  ****    0 ROOT
