@<TRIPOS>MOLECULE
1AI
   48    50     1     0     0
SMALL
abcg2


@<TRIPOS>ATOM
      1 C11          2.1970    35.8560    29.3160 c3         1 1AI       0.279100
      2 C12          1.7720    34.6660    28.4830 ca         1 1AI      -0.095300
      3 C13          1.0820    33.6130    29.1010 ca         1 1AI      -0.071300
      4 C14          0.6780    32.5290    28.3280 ca         1 1AI      -0.108000
      5 C15          0.9420    32.4730    26.9660 ca         1 1AI      -0.108000
      6 C16          1.6190    33.5190    26.3590 ca         1 1AI      -0.111000
      7 C17          2.0280    34.6080    27.1190 ca         1 1AI      -0.096000
      8 C18          0.7780    33.6460    30.5720 c3         1 1AI      -0.049800
      9 C19          5.3860    40.7610    25.9030 c3         1 1AI       0.148300
     10 C2           5.2210    37.4980    27.7830 ca         1 1AI       0.150500
     11 C20          6.3860    41.8140    26.3030 ca         1 1AI      -0.115300
     12 C21          6.4090    42.3420    27.6020 ca         1 1AI      -0.048300
     13 C22          7.3600    43.3120    27.9070 ca         1 1AI      -0.116000
     14 C23          8.2750    43.7570    26.9620 ca         1 1AI      -0.099000
     15 C24          8.2490    43.2320    25.6800 ca         1 1AI      -0.117000
     16 C25          7.3050    42.2650    25.3610 ca         1 1AI      -0.097000
     17 C26          5.4440    41.8860    28.6580 c3         1 1AI      -0.052800
     18 C3           4.3770    36.5850    28.4790 ca         1 1AI       0.627900
     19 C5           6.1990    35.2630    28.8550 ca         1 1AI       0.373900
     20 C6           7.0250    36.1530    28.1820 ca         1 1AI       0.204900
     21 N1           6.5120    37.2530    27.6590 nb         1 1AI      -0.611000
     22 N10          3.0620    36.7900    28.6490 nu         1 1AI      -0.914100
     23 N4           4.9050    35.4710    28.9980 nb         1 1AI      -0.732000
     24 N9           5.6410    39.5060    26.5720 ns         1 1AI      -0.475900
     25 O8           3.5130    39.0520    27.1980 o          1 1AI      -0.651100
     26 H1           2.6770    35.5090    30.2340 h1         1 1AI       0.063700
     27 H2           1.3110    36.4110    29.6320 h1         1 1AI       0.063700
     28 H3           0.1470    31.7130    28.8050 ha         1 1AI       0.109000
     29 H4           0.6190    31.6180    26.3860 ha         1 1AI       0.112000
     30 H5           1.8310    33.4920    25.2980 ha         1 1AI       0.112000
     31 H6           2.5520    35.4220    26.6360 ha         1 1AI       0.115000
     32 H7           1.6910    33.6670    31.1720 hc         1 1AI       0.041700
     33 H8           0.2000    34.5300    30.8480 hc         1 1AI       0.041700
     34 H9           0.2070    32.7690    30.8740 hc         1 1AI       0.041700
     35 H10          4.3700    41.0760    26.1420 h1         1 1AI       0.061200
     36 H11          5.4230    40.6190    24.8190 h1         1 1AI       0.061200
     37 H12          7.3820    43.7320    28.9070 ha         1 1AI       0.112000
     38 H13          9.0030    44.5130    27.2290 ha         1 1AI       0.113000
     39 H14          8.9540    43.5700    24.9320 ha         1 1AI       0.114000
     40 H15          7.2790    41.8510    24.3590 ha         1 1AI       0.110000
     41 H16          5.6840    40.8830    29.0130 hc         1 1AI       0.047033
     42 H17          5.4670    42.5530    29.5190 hc         1 1AI       0.047033
     43 H18          4.4170    41.8560    28.2910 hc         1 1AI       0.047033
     44 H19          6.6030    34.3540    29.2860 h4         1 1AI       0.027100
     45 H20          8.0850    35.9740    28.0650 h4         1 1AI       0.033100
     46 H21          2.6760    37.6140    28.2120 hn         1 1AI       0.541000
     47 H22          6.5850    39.1460    26.5740 hn         1 1AI       0.344500
     48 C7           4.7060    38.7540    27.1600 c          1 1AI       0.526600
@<TRIPOS>BOND
     1     1     2 1   
     2     1    22 1   
     3     1    26 1   
     4     1    27 1   
     5     2     3 ar  
     6     2     7 ar  
     7     3     4 ar  
     8     3     8 1   
     9     4     5 ar  
    10     4    28 1   
    11     5     6 ar  
    12     5    29 1   
    13     6     7 ar  
    14     6    30 1   
    15     7    31 1   
    16     8    32 1   
    17     8    33 1   
    18     8    34 1   
    19     9    11 1   
    20     9    24 1   
    21     9    35 1   
    22     9    36 1   
    23    10    18 ar  
    24    10    21 ar  
    25    10    48 1   
    26    11    12 ar  
    27    11    16 ar  
    28    12    13 ar  
    29    12    17 1   
    30    13    14 ar  
    31    13    37 1   
    32    14    15 ar  
    33    14    38 1   
    34    15    16 ar  
    35    15    39 1   
    36    16    40 1   
    37    17    41 1   
    38    17    42 1   
    39    17    43 1   
    40    18    22 1   
    41    18    23 ar  
    42    19    20 ar  
    43    19    23 ar  
    44    19    44 1   
    45    20    21 ar  
    46    20    45 1   
    47    22    46 1   
    48    24    47 1   
    49    24    48 1   
    50    25    48 2   
@<TRIPOS>SUBSTRUCTURE
     1 1AI         1 TEMP              0 ****  ****    0 ROOT
