@<TRIPOS>MOLECULE
1AJ
   27    29     1     0     0
SMALL
No Charge or Current Charge


@<TRIPOS>ATOM
      1 CAH         -0.5480     1.8890     0.8310 c6         1 1AJ       0.100000
      2 CAG         -1.7940     1.8470    -0.0820 c6         1 1AJ      -0.030100
      3 CAN         -2.3890     0.4650    -0.0330 cc         1 1AJ      -0.202300
      4 SAK         -4.0500     0.0510    -0.4470 ss         1 1AJ       0.218000
      5 CAC         -3.7410    -1.6430    -0.0780 cc         1 1AJ      -0.236000
      6 CAD         -2.4430    -1.8340     0.3280 cd         1 1AJ      -0.117000
      7 CAM         -1.6730    -0.6390     0.3550 cd         1 1AJ      -0.147300
      8 CAI         -0.2090    -0.5900     0.7670 c6         1 1AJ       0.169300
      9 NAO          0.3860     0.7640     0.5380 n          1 1AJ      -0.403800
     10 CAL          1.6000     0.9850    -0.1610 c          1 1AJ       0.626900
     11 OAA          1.7730     2.0440    -0.7530 o          1 1AJ      -0.567100
     12 NAP          2.6170     0.0030    -0.1800 n          1 1AJ      -0.172300
     13 CAE          3.7230    -0.0140    -0.9880 cc         1 1AJ      -0.183000
     14 CAB          4.5270    -1.0670    -0.6370 cd         1 1AJ       0.225900
     15 NAJ          3.9410    -1.7130     0.4590 nd         1 1AJ      -0.663000
     16 CAF          2.8200    -1.0270     0.6970 cc         1 1AJ       0.407400
     17 H1          -0.0430     2.8600     0.7270 h1         1 1AJ       0.068200
     18 H2          -2.5180     2.6070     0.2410 hc         1 1AJ       0.068700
     19 H3          -4.5370    -2.3680    -0.1900 h4         1 1AJ       0.154000
     20 H4          -2.0450    -2.8070     0.6030 ha         1 1AJ       0.137000
     21 H5          -0.1130    -0.8550     1.8300 h1         1 1AJ       0.068700
     22 H6           3.8180     0.7400    -1.7600 h4         1 1AJ       0.171000
     23 H7           5.4680    -1.3830    -1.0730 h4         1 1AJ       0.041100
     24 H8           2.1470    -1.2000     1.5260 h5         1 1AJ       0.059100
     25 H9          -0.8710     1.8110     1.8790 h1         1 1AJ       0.068200
     26 H10         -1.5040     2.1030    -1.1100 hc         1 1AJ       0.068700
     27 H11          0.3270    -1.3470     0.1780 h1         1 1AJ       0.068700
@<TRIPOS>BOND
     1     1     2 1   
     2     1     9 1   
     3     1    17 1   
     4     1    25 1   
     5     2     3 1   
     6     2    18 1   
     7     2    26 1   
     8     3     4 1   
     9     3     7 2   
    10     4     5 1   
    11     5     6 2   
    12     5    19 1   
    13     6     7 1   
    14     6    20 1   
    15     7     8 1   
    16     8     9 1   
    17     8    21 1   
    18     8    27 1   
    19     9    10 1   
    20    10    11 2   
    21    10    12 1   
    22    12    13 1   
    23    12    16 1   
    24    13    14 2   
    25    13    22 1   
    26    14    15 1   
    27    14    23 1   
    28    15    16 2   
    29    16    24 1   
@<TRIPOS>SUBSTRUCTURE
     1 1AJ         1 TEMP              0 ****  ****    0 ROOT
