@<TRIPOS>MOLECULE
1AJ
   27    29     1     0     0
SMALL
abcg2


@<TRIPOS>ATOM
      1 CAH         -0.5360     1.8660     0.9490 c6         1 1AJ       0.100000
      2 CAG         -1.6850     1.8490    -0.0520 c6         1 1AJ      -0.030100
      3 CAN         -2.2110     0.4530    -0.1100 cc         1 1AJ      -0.202300
      4 SAK         -3.7580     0.0160    -0.7230 ss         1 1AJ       0.218000
      5 CAC         -3.4970    -1.6440    -0.3690 cc         1 1AJ      -0.236000
      6 CAD         -2.2770    -1.8490     0.1930 cd         1 1AJ      -0.117000
      7 CAM         -1.5350    -0.6400     0.3380 cd         1 1AJ      -0.147300
      8 CAI         -0.1500    -0.5510     0.9130 c6         1 1AJ       0.169300
      9 NAO          0.4010     0.7800     0.6890 n          1 1AJ      -0.403800
     10 CAL          1.4820     1.0450    -0.0690 c          1 1AJ       0.626900
     11 OAA          1.6850     2.0820    -0.6620 o          1 1AJ      -0.567100
     12 NAP          2.4630     0.0220    -0.1090 n          1 1AJ      -0.172300
     13 CAE          3.2930    -0.2250    -1.1790 cc         1 1AJ      -0.183000
     14 CAB          4.1670    -1.1690    -0.7440 cd         1 1AJ       0.225900
     15 NAJ          3.9190    -1.4860     0.5690 nd         1 1AJ      -0.663000
     16 CAF          2.9010    -0.7620     0.9210 cc         1 1AJ       0.407400
     17 H1          -0.0110     2.8170     0.9330 h1         1 1AJ       0.068200
     18 H2          -2.4540     2.5540     0.2680 hc         1 1AJ       0.068700
     19 H3          -4.2540    -2.3780    -0.5990 h4         1 1AJ       0.154000
     20 H4          -1.9110    -2.8220     0.4880 ha         1 1AJ       0.137000
     21 H5          -0.1660    -0.7700     1.9850 h1         1 1AJ       0.068700
     22 H6           3.1740     0.2670    -2.1280 h4         1 1AJ       0.171000
     23 H7           4.9610    -1.6390    -1.3030 h4         1 1AJ       0.041100
     24 H8           2.4540    -0.7320     1.9030 h5         1 1AJ       0.059100
     25 H9          -0.9260     1.7230     1.9590 h1         1 1AJ       0.068200
     26 H10         -1.3390     2.1800    -1.0350 hc         1 1AJ       0.068700
     27 H11          0.4770    -1.3060     0.4430 h1         1 1AJ       0.068700
@<TRIPOS>BOND
     1     1     2 1   
     2     1     9 1   
     3     1    17 1   
     4     1    25 1   
     5     2     3 1   
     6     2    18 1   
     7     2    26 1   
     8     3     4 1   
     9     3     7 2   
    10     4     5 1   
    11     5     6 2   
    12     5    19 1   
    13     6     7 1   
    14     6    20 1   
    15     7     8 1   
    16     8     9 1   
    17     8    21 1   
    18     8    27 1   
    19     9    10 1   
    20    10    11 2   
    21    10    12 1   
    22    12    13 1   
    23    12    16 1   
    24    13    14 2   
    25    13    22 1   
    26    14    15 1   
    27    14    23 1   
    28    15    16 2   
    29    16    24 1   
@<TRIPOS>SUBSTRUCTURE
     1 1AJ         1 TEMP              0 ****  ****    0 ROOT
