@<TRIPOS>MOLECULE
1AK
   53    57     1     0     0
SMALL
bcc


@<TRIPOS>ATOM
      1 CL1         -2.0260     1.2210    -2.3630 cl         1 1AK      -0.075400
      2 C01         -2.0610     3.3400    -0.6900 ca         1 1AK      -0.114000
      3 C02         -1.9370     3.9280     0.5610 ca         1 1AK      -0.102000
      4 C03         -1.6210     3.1600     1.6720 ca         1 1AK      -0.120000
      5 C04         -1.4310     1.7930     1.5360 ca         1 1AK      -0.098000
      6 C05         -1.5580     1.2030     0.2900 ca         1 1AK      -0.003200
      7 C06         -1.8660     1.9760    -0.8230 ca         1 1AK       0.046400
      8 N08         -1.3260    -0.1880     0.1420 na         1 1AK      -0.232800
      9 C09         -2.2120    -1.2110     0.0020 cc         1 1AK       0.338500
     10 N10         -1.5550    -2.3330    -0.1490 nd         1 1AK      -0.342000
     11 N11         -0.2470    -2.0660    -0.1180 nd         1 1AK      -0.340000
     12 C12         -0.1000    -0.7750     0.0530 cc         1 1AK       0.434300
     13 C13          1.1460    -0.0520     0.1290 ce         1 1AK      -0.161800
     14 C14          2.3330    -0.6690     0.0910 cf         1 1AK      -0.184800
     15 C15          3.5730     0.0580     0.1600 cd         1 1AK       0.510200
     16 N16          3.7840     1.3290     0.2770 nc         1 1AK      -0.351000
     17 N17          5.1290     1.5050     0.2910 nc         1 1AK      -0.352000
     18 C18          5.6630     0.3340     0.1820 cd         1 1AK       0.520900
     19 C19          7.0710    -0.0150     0.1500 ca         1 1AK      -0.122500
     20 C20          8.0210     1.0010     0.2670 ca         1 1AK      -0.090000
     21 C21          9.3670     0.6970     0.2400 ca         1 1AK      -0.099000
     22 C22          9.7700    -0.6310     0.0940 ca         1 1AK       0.008000
     23 C23          8.8260    -1.6500    -0.0240 ca         1 1AK      -0.099000
     24 C24          7.4790    -1.3400     0.0040 ca         1 1AK      -0.090000
     25 C25         11.1610    -0.9490     0.0630 cg         1 1AK       0.226800
     26 N26         12.2840    -1.2040     0.0390 n1         1 1AK      -0.346800
     27 O27          4.7290    -0.6210     0.0960 os         1 1AK      -0.353800
     28 C28         -3.6670    -1.1110     0.0250 ca         1 1AK       0.434300
     29 C29         -4.4380    -2.2540    -0.1820 ca         1 1AK      -0.219300
     30 C30         -5.8130    -2.1320    -0.1410 ca         1 1AK       0.001000
     31 C31         -6.3520    -0.8780     0.1030 ca         1 1AK      -0.389800
     32 C32         -5.5060     0.2080     0.2840 ca         1 1AK       0.503200
     33 N33         -4.1920     0.0870     0.2500 nb         1 1AK      -0.685000
     34 S34         -8.1110    -0.6550     0.1720 sy         1 1AK       1.099300
     35 O35         -8.4060     0.7180    -0.2260 o          1 1AK      -0.588300
     36 O36         -8.7300    -1.7560    -0.5600 o          1 1AK      -0.588300
     37 C37         -8.4900    -0.8380     1.8970 c3         1 1AK      -0.227300
     38 H01         -2.3040     3.9380    -1.5570 ha         1 1AK       0.156000
     39 H02         -2.0870     4.9940     0.6620 ha         1 1AK       0.144000
     40 H03         -1.5230     3.6200     2.6460 ha         1 1AK       0.145000
     41 H04         -1.1900     1.1790     2.3930 ha         1 1AK       0.150000
     42 H13          1.0920     1.0260     0.2160 ha         1 1AK       0.161000
     43 H14          2.4030    -1.7460     0.0060 ha         1 1AK       0.173000
     44 H20          7.7080     2.0290     0.3820 ha         1 1AK       0.158500
     45 H21         10.1040     1.4820     0.3320 ha         1 1AK       0.151500
     46 H23          9.1430    -2.6770    -0.1380 ha         1 1AK       0.151500
     47 H24          6.7570    -2.1390    -0.0880 ha         1 1AK       0.158500
     48 H29         -3.9730    -3.2100    -0.3730 ha         1 1AK       0.177000
     49 H30         -6.4420    -2.9980    -0.2990 ha         1 1AK       0.167000
     50 H32         -5.8970     1.2030     0.4640 h4         1 1AK       0.045100
     51 H37         -7.9570    -0.0810     2.4680 h1         1 1AK       0.105033
     52 H37A        -9.5650    -0.6990     2.0060 h1         1 1AK       0.105033
     53 H37B        -8.2060    -1.8350     2.2270 h1         1 1AK       0.105033
@<TRIPOS>BOND
     1     1     7 1   
     2     2     3 ar  
     3     2     7 ar  
     4     2    38 1   
     5     3     4 ar  
     6     3    39 1   
     7     4     5 ar  
     8     4    40 1   
     9     5     6 ar  
    10     5    41 1   
    11     6     7 ar  
    12     6     8 1   
    13     8     9 1   
    14     8    12 1   
    15     9    10 2   
    16     9    28 1   
    17    10    11 1   
    18    11    12 2   
    19    12    13 1   
    20    13    14 2   
    21    13    42 1   
    22    14    15 1   
    23    14    43 1   
    24    15    16 2   
    25    15    27 1   
    26    16    17 1   
    27    17    18 2   
    28    18    19 1   
    29    18    27 1   
    30    19    20 ar  
    31    19    24 ar  
    32    20    21 ar  
    33    20    44 1   
    34    21    22 ar  
    35    21    45 1   
    36    22    23 ar  
    37    22    25 1   
    38    23    24 ar  
    39    23    46 1   
    40    24    47 1   
    41    25    26 3   
    42    28    29 ar  
    43    28    33 ar  
    44    29    30 ar  
    45    29    48 1   
    46    30    31 ar  
    47    30    49 1   
    48    31    32 ar  
    49    31    34 1   
    50    32    33 ar  
    51    32    50 1   
    52    34    35 2   
    53    34    36 2   
    54    34    37 1   
    55    37    51 1   
    56    37    52 1   
    57    37    53 1   
@<TRIPOS>SUBSTRUCTURE
     1 1AK         1 TEMP              0 ****  ****    0 ROOT
