@<TRIPOS>MOLECULE
1AK
   53    57     1     0     0
SMALL
No Charge or Current Charge


@<TRIPOS>ATOM
      1 Cl1         -2.2090     1.4580    -2.6310 cl         1 1AK      -0.167000
      2 C01         -2.1910     3.4260    -0.7290 ca         1 1AK      -0.096000
      3 C02         -2.0020     3.9370     0.5670 ca         1 1AK      -0.084000
      4 C03         -1.5930     3.0820     1.6050 ca         1 1AK      -0.102000
      5 C04         -1.3750     1.7170     1.3490 ca         1 1AK      -0.080000
      6 C05         -1.5680     1.1980     0.0540 ca         1 1AK      -0.003200
      7 C06         -1.9750     2.0620    -0.9890 ca         1 1AK       0.138000
      8 N08         -1.3350    -0.1580    -0.1790 na         1 1AK      -0.232800
      9 C09         -2.2930    -1.1450    -0.3220 cc         1 1AK       0.338500
     10 N10         -1.6430    -2.2540    -0.6690 nd         1 1AK      -0.342000
     11 N11         -0.2940    -1.9680    -0.7700 nd         1 1AK      -0.340000
     12 C12         -0.1220    -0.6760    -0.5380 cc         1 1AK       0.434300
     13 C13          1.1710    -0.0010    -0.4550 ce         1 1AK      -0.211800
     14 C14          2.4000    -0.5860    -0.3040 cf         1 1AK      -0.234800
     15 C15          3.6980     0.0710    -0.1860 cd         1 1AK       0.465800
     16 N16          3.8830     1.3830    -0.2080 nc         1 1AK      -0.351000
     17 N17          5.2410     1.5610    -0.0670 nc         1 1AK      -0.352000
     18 C18          5.7410     0.3370     0.0270 cd         1 1AK       0.476500
     19 C19          7.1680    -0.0180     0.1930 ca         1 1AK      -0.122500
     20 C20          8.1530     0.9930     0.2660 ca         1 1AK      -0.072000
     21 C21          9.5100     0.6600     0.4240 ca         1 1AK      -0.081000
     22 C22          9.9050    -0.6870     0.5110 ca         1 1AK       0.008000
     23 C23          8.9310    -1.7000     0.4390 ca         1 1AK      -0.081000
     24 C24          7.5730    -1.3690     0.2810 ca         1 1AK      -0.072000
     25 C25         11.2930    -1.0270     0.6720 cg         1 1AK       0.316000
     26 N26         12.4180    -1.3120     0.8010 n1         1 1AK      -0.436000
     27 O27          4.8260    -0.6590    -0.0400 os         1 1AK      -0.265000
     28 C28         -3.7650    -1.0360    -0.1110 ca         1 1AK       0.369000
     29 C29         -4.5810    -2.1680    -0.3380 ca         1 1AK      -0.136000
     30 C30         -5.9670    -2.0860    -0.1420 ca         1 1AK       0.019000
     31 C31         -6.5000    -0.8580     0.2810 ca         1 1AK      -0.324500
     32 C32         -5.6480     0.2250     0.4940 ca         1 1AK       0.437900
     33 N33         -4.3130     0.1410     0.3060 nb         1 1AK      -0.685000
     34 S34         -8.2440    -0.6420     0.5680 sy         1 1AK       1.068500
     35 O35         -8.5730     0.7820     0.4340 o          1 1AK      -0.517500
     36 O36         -8.9760    -1.6700    -0.1830 o          1 1AK      -0.517500
     37 C37         -8.4240    -1.0490     2.3030 c3         1 1AK      -0.338100
     38 H01         -2.5050     4.0860    -1.5330 ha         1 1AK       0.138000
     39 H02         -2.1700     4.9930     0.7660 ha         1 1AK       0.126000
     40 H03         -1.4440     3.4780     2.6080 ha         1 1AK       0.127000
     41 H04         -1.0580     1.0620     2.1580 ha         1 1AK       0.132000
     42 H13          1.1060     1.0870    -0.4710 ha         1 1AK       0.211000
     43 H14          2.4570    -1.6750    -0.2620 ha         1 1AK       0.223000
     44 H20          7.8720     2.0420     0.2010 ha         1 1AK       0.140500
     45 H21         10.2540     1.4530     0.4780 ha         1 1AK       0.133500
     46 H23          9.2230    -2.7460     0.5050 ha         1 1AK       0.133500
     47 H24          6.8400    -2.1720     0.2280 ha         1 1AK       0.140500
     48 H29         -4.1420    -3.1060    -0.6670 ha         1 1AK       0.159000
     49 H30         -6.6010    -2.9560    -0.3160 ha         1 1AK       0.149000
     50 H32         -6.0240     1.1910     0.8310 h4         1 1AK       0.045100
     51 H37         -7.8100    -0.3540     2.8850 h1         1 1AK       0.105033
     52 H37A        -9.4810    -0.9480     2.5690 h1         1 1AK       0.105033
     53 H37B        -8.0850    -2.0800     2.4490 h1         1 1AK       0.105033
@<TRIPOS>BOND
     1     1     7 1   
     2     2     3 ar  
     3     2     7 ar  
     4     2    38 1   
     5     3     4 ar  
     6     3    39 1   
     7     4     5 ar  
     8     4    40 1   
     9     5     6 ar  
    10     5    41 1   
    11     6     7 ar  
    12     6     8 1   
    13     8     9 1   
    14     8    12 1   
    15     9    10 2   
    16     9    28 1   
    17    10    11 1   
    18    11    12 2   
    19    12    13 1   
    20    13    14 2   
    21    13    42 1   
    22    14    15 1   
    23    14    43 1   
    24    15    16 2   
    25    15    27 1   
    26    16    17 1   
    27    17    18 2   
    28    18    19 1   
    29    18    27 1   
    30    19    20 ar  
    31    19    24 ar  
    32    20    21 ar  
    33    20    44 1   
    34    21    22 ar  
    35    21    45 1   
    36    22    23 ar  
    37    22    25 1   
    38    23    24 ar  
    39    23    46 1   
    40    24    47 1   
    41    25    26 3   
    42    28    29 ar  
    43    28    33 ar  
    44    29    30 ar  
    45    29    48 1   
    46    30    31 ar  
    47    30    49 1   
    48    31    32 ar  
    49    31    34 1   
    50    32    33 ar  
    51    32    50 1   
    52    34    35 2   
    53    34    36 2   
    54    34    37 1   
    55    37    51 1   
    56    37    52 1   
    57    37    53 1   
@<TRIPOS>SUBSTRUCTURE
     1 1AK         1 TEMP              0 ****  ****    0 ROOT
