@<TRIPOS>MOLECULE
1AL
   19    18     1     0     0
SMALL
abcg2


@<TRIPOS>ATOM
      1 C1           2.0390     0.8170     0.1880 c          1 1AL       0.639600
      2 O2           1.9990     1.0100     1.3990 o          1 1AL      -0.656100
      3 N3           3.1040     1.2220    -0.5700 nt         1 1AL      -0.608500
      4 N4           1.0740     0.1690    -0.5050 ns         1 1AL      -0.499900
      5 C5           0.0870    -2.0270     0.0320 c          1 1AL       0.706000
      6 O6          -0.8710    -2.6580    -0.4540 o          1 1AL      -0.711000
      7 O7           1.1550    -2.4780     0.4690 o          1 1AL      -0.711000
      8 C8          -0.0540    -0.4750     0.1180 c3         1 1AL       0.128100
      9 C9          -1.8530     1.1450    -0.2670 c          1 1AL       0.639600
     10 O10         -1.3130     2.0240     0.3970 o          1 1AL      -0.656100
     11 N11         -3.0490     1.3430    -0.9020 nt         1 1AL      -0.608500
     12 N12         -1.2960    -0.0720    -0.4720 ns         1 1AL      -0.499900
     13 HN31         3.7110     1.9070    -0.1500 hn         1 1AL       0.280500
     14 HN32         2.9990     1.3190    -1.5670 hn         1 1AL       0.280500
     15 HN4          1.2420    -0.0520    -1.4740 hn         1 1AL       0.314000
     16 H8          -0.0240    -0.1970     1.1740 h2         1 1AL       0.088700
     17 H111        -3.5880     0.5460    -1.1990 hn         1 1AL       0.280500
     18 H112        -3.6030     2.1130    -0.5670 hn         1 1AL       0.280500
     19 H12         -1.8080    -0.8120    -0.9290 hn         1 1AL       0.314000
@<TRIPOS>BOND
     1     1     2 2   
     2     1     3 1   
     3     1     4 1   
     4     3    13 1   
     5     3    14 1   
     6     4     8 1   
     7     4    15 1   
     8     5     6 1   
     9     5     7 1   
    10     5     8 1   
    11     8    12 1   
    12     8    16 1   
    13     9    10 2   
    14     9    11 1   
    15     9    12 1   
    16    11    17 1   
    17    11    18 1   
    18    12    19 1   
@<TRIPOS>SUBSTRUCTURE
     1 1AL         1 TEMP              0 ****  ****    0 ROOT
