@<TRIPOS>MOLECULE
1AL
   19    18     1     0     0
SMALL
No Charge or Current Charge


@<TRIPOS>ATOM
      1 C1           1.9910     1.0230    -0.0300 c          1 1AL       0.639600
      2 O2           1.8280     1.5820     1.0370 o          1 1AL      -0.656100
      3 N3           3.0000     1.3460    -0.8520 nt         1 1AL      -0.608500
      4 N4           1.2060     0.0180    -0.5110 ns         1 1AL      -0.499900
      5 C5           0.0140    -2.0940     0.1130 c          1 1AL       0.706000
      6 O6          -0.0250    -2.6460    -0.9820 o          1 1AL      -0.711000
      7 O7           0.0520    -2.7100     1.1710 o          1 1AL      -0.711000
      8 C8           0.0140    -0.5200     0.1630 c3         1 1AL       0.128100
      9 C9          -1.9750     1.0190     0.1130 c          1 1AL       0.639600
     10 O10         -1.7370     1.5790     1.1650 o          1 1AL      -0.656100
     11 N11         -3.0410     1.3410    -0.6350 nt         1 1AL      -0.608500
     12 N12         -1.2250     0.0150    -0.4230 ns         1 1AL      -0.499900
     13 HN31         3.6390     2.0780    -0.5790 hn         1 1AL       0.280500
     14 HN32         3.1170     0.8670    -1.7320 hn         1 1AL       0.280500
     15 HN4          1.4670    -0.3840    -1.4010 hn         1 1AL       0.314000
     16 H8           0.0520    -0.2180     1.2170 h2         1 1AL       0.088700
     17 H111        -3.2190     0.8620    -1.5040 hn         1 1AL       0.280500
     18 H112        -3.6590     2.0720    -0.3170 hn         1 1AL       0.280500
     19 H12         -1.5470    -0.3860    -1.2930 hn         1 1AL       0.314000
@<TRIPOS>BOND
     1     1     2 2   
     2     1     3 1   
     3     1     4 1   
     4     3    13 1   
     5     3    14 1   
     6     4     8 1   
     7     4    15 1   
     8     5     6 1   
     9     5     7 1   
    10     5     8 1   
    11     8    12 1   
    12     8    16 1   
    13     9    10 2   
    14     9    11 1   
    15     9    12 1   
    16    11    17 1   
    17    11    18 1   
    18    12    19 1   
@<TRIPOS>SUBSTRUCTURE
     1 1AL         1 TEMP              0 ****  ****    0 ROOT
