@<TRIPOS>MOLECULE
1AN
   14    14     1     0     0
SMALL
bcc


@<TRIPOS>ATOM
      1 C4           0.7420     0.0050    -1.9260 ca         1 1AN      -0.149000
      2 C5          -0.6440     0.0070    -1.9850 ca         1 1AN      -0.103000
      3 C3           1.3670    -0.0370    -0.6840 ca         1 1AN      -0.128000
      4 C6          -1.4030    -0.0320    -0.8240 ca         1 1AN      -0.178000
      5 C2           0.5970    -0.0800     0.4570 ca         1 1AN       0.065900
      6 C1          -0.7980    -0.0790     0.4360 ca         1 1AN       0.115600
      7 N           -1.5310    -0.1820     1.6000 nv         1 1AN      -0.810200
      8 F2           1.2050    -0.1220     1.6620 f          1 1AN      -0.152900
      9 HC4          1.3360     0.0380    -2.8280 ha         1 1AN       0.136000
     10 HC5         -1.1470     0.0430    -2.9430 ha         1 1AN       0.133000
     11 HC3          2.4460    -0.0370    -0.6000 ha         1 1AN       0.147000
     12 HC6         -2.4840    -0.0270    -0.8840 ha         1 1AN       0.132000
     13 HN1         -1.1020     0.1980     2.4280 hn         1 1AN       0.395800
     14 HN2         -2.4900     0.1150     1.5180 hn         1 1AN       0.395800
@<TRIPOS>BOND
     1     1     2 ar  
     2     1     3 ar  
     3     1     9 1   
     4     2     4 ar  
     5     2    10 1   
     6     3     5 ar  
     7     3    11 1   
     8     4     6 ar  
     9     4    12 1   
    10     5     6 ar  
    11     5     8 1   
    12     6     7 1   
    13     7    13 1   
    14     7    14 1   
@<TRIPOS>SUBSTRUCTURE
     1 1AN         1 TEMP              0 ****  ****    0 ROOT
