@<TRIPOS>MOLECULE
1AN
   14    14     1     0     0
SMALL
No Charge or Current Charge


@<TRIPOS>ATOM
      1 C4           0.7480    -0.0080    -1.9360 ca         1 1AN      -0.131000
      2 C5          -0.6550     0.0030    -2.0020 ca         1 1AN      -0.085000
      3 C3           1.3930    -0.0370    -0.6860 ca         1 1AN      -0.110000
      4 C6          -1.4180    -0.0150    -0.8190 ca         1 1AN      -0.160000
      5 C2           0.6310    -0.0550     0.4950 ca         1 1AN       0.101000
      6 C1          -0.7860    -0.0440     0.4360 ca         1 1AN       0.254000
      7 N           -1.5620    -0.0600     1.5770 nv         1 1AN      -1.059000
      8 F2           1.2720    -0.0810     1.6900 f          1 1AN      -0.188000
      9 HC4          1.3360     0.0060    -2.8510 ha         1 1AN       0.118000
     10 HC5         -1.1530     0.0250    -2.9690 ha         1 1AN       0.115000
     11 HC3          2.4790    -0.0450    -0.6320 ha         1 1AN       0.129000
     12 HC6         -2.5030    -0.0070    -0.8830 ha         1 1AN       0.114000
     13 HN1         -1.1190     0.0370     2.4890 hn         1 1AN       0.451000
     14 HN2         -2.5680     0.0890     1.5190 hn         1 1AN       0.451000
@<TRIPOS>BOND
     1     1     2 ar  
     2     1     3 ar  
     3     1     9 1   
     4     2     4 ar  
     5     2    10 1   
     6     3     5 ar  
     7     3    11 1   
     8     4     6 ar  
     9     4    12 1   
    10     5     6 ar  
    11     5     8 1   
    12     6     7 1   
    13     7    13 1   
    14     7    14 1   
@<TRIPOS>SUBSTRUCTURE
     1 1AN         1 TEMP              0 ****  ****    0 ROOT
