@<TRIPOS>MOLECULE
1AO
   49    53     1     0     0
SMALL
bcc


@<TRIPOS>ATOM
      1 C01          6.2560     0.9220     0.4160 ca         1 1AO      -0.151000
      2 C02          5.7730     2.2200     0.3480 ca         1 1AO      -0.107000
      3 C03          4.4090     2.4680     0.2570 ca         1 1AO      -0.154000
      4 C04          3.5150     1.4010     0.2290 ca         1 1AO       0.087600
      5 C05          3.9990     0.0780     0.2780 ca         1 1AO       0.043600
      6 C06          5.3650    -0.1430     0.3760 ca         1 1AO      -0.130000
      7 N07          3.0400    -0.9620     0.2260 nh         1 1AO      -0.644000
      8 C08          3.2470    -2.0670     1.1500 c6         1 1AO       0.147300
      9 C09          2.0180    -2.9690     1.1410 c6         1 1AO       0.141800
     10 N10          1.6710    -3.4570    -0.1820 n7         1 1AO      -0.787200
     11 C11          1.5420    -2.3500    -1.1140 c6         1 1AO       0.141800
     12 C12          2.7540    -1.4270    -1.1300 c6         1 1AO       0.147300
     13 N13          2.1300     1.5160     0.1840 ns         1 1AO      -0.451100
     14 C14          1.3490     2.5970    -0.0010 c          1 1AO       0.608600
     15 O15          1.7310     3.7450    -0.1580 o          1 1AO      -0.591100
     16 C16         -0.0970     2.2520    -0.0010 cc         1 1AO       0.303800
     17 N17         -0.4830     0.9480     0.1110 nc         1 1AO      -0.651000
     18 C18         -1.7660     0.8420     0.0800 cd         1 1AO       0.561900
     19 S19         -2.6090     2.3500    -0.0810 ss         1 1AO      -0.158300
     20 C20         -1.0990     3.1570    -0.1250 cd         1 1AO      -0.147400
     21 N21         -2.4190    -0.3660     0.1960 na         1 1AO       0.057100
     22 N22         -1.7180    -1.4320     0.6520 nc         1 1AO      -0.467100
     23 C23         -2.5230    -2.4490     0.6310 cd         1 1AO       0.371800
     24 C24         -3.8140    -2.0830     0.1480 ca         1 1AO      -0.218900
     25 C25         -5.0100    -2.7680    -0.0740 ca         1 1AO      -0.052000
     26 C26         -6.0790    -2.0580    -0.5770 ca         1 1AO      -0.157000
     27 C27         -5.9620    -0.6890    -0.8610 ca         1 1AO      -0.088000
     28 C28         -4.7890     0.0090    -0.6480 ca         1 1AO      -0.145000
     29 C29         -3.7120    -0.7120    -0.1310 ca         1 1AO      -0.022200
     30 H1           7.3190     0.7370     0.4900 ha         1 1AO       0.131000
     31 H2           6.4600     3.0550     0.3750 ha         1 1AO       0.132000
     32 H3           4.0530     3.4860     0.2210 ha         1 1AO       0.164000
     33 H4           5.7380    -1.1590     0.4180 ha         1 1AO       0.129000
     34 H5           4.1320    -2.6690     0.8880 h1         1 1AO       0.038450
     35 H6           3.4120    -1.6650     2.1510 h1         1 1AO       0.038450
     36 H7           2.1850    -3.8160     1.8080 h1         1 1AO       0.065200
     37 H8           1.1620    -2.4090     1.5300 h1         1 1AO       0.065200
     38 H9           2.4040    -4.0790    -0.5060 hn         1 1AO       0.340800
     39 H11          1.3730    -2.7420    -2.1190 h1         1 1AO       0.065200
     40 H12          0.6570    -1.7700    -0.8350 h1         1 1AO       0.065200
     41 H13          2.5570    -0.5680    -1.7750 h1         1 1AO       0.038450
     42 H14          3.6220    -1.9570    -1.5550 h1         1 1AO       0.038450
     43 H15          1.6590     0.6210     0.3050 hn         1 1AO       0.375500
     44 H16         -1.0390     4.2270    -0.2420 h4         1 1AO       0.202000
     45 H17         -2.1830    -3.4190     0.9610 h4         1 1AO       0.061800
     46 H18         -5.0910    -3.8250     0.1410 ha         1 1AO       0.143000
     47 H19         -7.0210    -2.5570    -0.7610 ha         1 1AO       0.138000
     48 H20         -6.8160    -0.1590    -1.2610 ha         1 1AO       0.136000
     49 H21         -4.7420     1.0600    -0.8920 ha         1 1AO       0.145000
@<TRIPOS>BOND
     1     1     2 ar  
     2     1     6 ar  
     3     1    30 1   
     4     2     3 ar  
     5     2    31 1   
     6     3     4 ar  
     7     3    32 1   
     8     4     5 ar  
     9     4    13 1   
    10     5     6 ar  
    11     5     7 1   
    12     6    33 1   
    13     7     8 1   
    14     7    12 1   
    15     8     9 1   
    16     8    34 1   
    17     8    35 1   
    18     9    10 1   
    19     9    36 1   
    20     9    37 1   
    21    10    11 1   
    22    10    38 1   
    23    11    12 1   
    24    11    39 1   
    25    11    40 1   
    26    12    41 1   
    27    12    42 1   
    28    13    14 1   
    29    13    43 1   
    30    14    15 2   
    31    14    16 1   
    32    16    17 1   
    33    16    20 2   
    34    17    18 2   
    35    18    19 1   
    36    18    21 1   
    37    19    20 1   
    38    20    44 1   
    39    21    22 1   
    40    21    29 1   
    41    22    23 2   
    42    23    24 1   
    43    23    45 1   
    44    24    25 ar  
    45    24    29 ar  
    46    25    26 ar  
    47    25    46 1   
    48    26    27 ar  
    49    26    47 1   
    50    27    28 ar  
    51    27    48 1   
    52    28    29 ar  
    53    28    49 1   
@<TRIPOS>SUBSTRUCTURE
     1 1AO         1 TEMP              0 ****  ****    0 ROOT
