@<TRIPOS>MOLECULE
1AO
   49    53     1     0     0
SMALL
No Charge or Current Charge


@<TRIPOS>ATOM
      1 C01          6.3790     1.1200     0.2060 ca         1 1AO      -0.133000
      2 C02          5.8150     2.4030     0.2160 ca         1 1AO      -0.089000
      3 C03          4.4190     2.5600     0.2110 ca         1 1AO      -0.136000
      4 C04          3.5730     1.4280     0.1940 ca         1 1AO      -0.005000
      5 C05          4.1440     0.1290     0.1810 ca         1 1AO       0.182000
      6 C06          5.5460    -0.0110     0.1890 ca         1 1AO      -0.112000
      7 N07          3.3140    -1.0220     0.1600 nh         1 1AO      -0.782400
      8 C08          3.6190    -2.1900     1.0470 c6         1 1AO       0.147300
      9 C09          2.3850    -3.1320     1.2440 c6         1 1AO       0.141800
     10 N10          1.7820    -3.5630    -0.0510 n7         1 1AO      -0.842400
     11 C11          1.4180    -2.3740    -0.8750 c6         1 1AO       0.141800
     12 C12          2.6320    -1.4150    -1.1140 c6         1 1AO       0.147300
     13 N13          2.1530     1.5200     0.2040 ns         1 1AO      -0.125000
     14 C14          1.2670     2.5860     0.1920 c          1 1AO       0.541600
     15 O15          1.6080     3.7690     0.1890 o          1 1AO      -0.591100
     16 C16         -0.1630     2.1220     0.1760 cc         1 1AO       0.238500
     17 N17         -0.5440     0.7900     0.1740 nc         1 1AO      -0.651000
     18 C18         -1.8690     0.7140     0.0930 cd         1 1AO       0.561900
     19 S19         -2.7640     2.2280     0.2090 ss         1 1AO      -0.013400
     20 C20         -1.2010     3.0330     0.1760 cd         1 1AO      -0.209000
     21 N21         -2.4850    -0.5280     0.3660 na         1 1AO       0.057100
     22 N22         -2.0220    -1.6340     1.1050 nc         1 1AO      -0.467100
     23 C23         -3.0530    -2.4900     1.0990 cd         1 1AO       0.371800
     24 C24         -4.1570    -1.9760     0.3190 ca         1 1AO      -0.218900
     25 C25         -5.3770    -2.5710    -0.0270 ca         1 1AO      -0.034000
     26 C26         -6.2180    -1.8660    -0.9110 ca         1 1AO      -0.139000
     27 C27         -5.8060    -0.6250    -1.4480 ca         1 1AO      -0.070000
     28 C28         -4.5600    -0.0660    -1.0900 ca         1 1AO      -0.127000
     29 C29         -3.7640    -0.7580    -0.1530 ca         1 1AO      -0.022200
     30 H1           7.4600     1.0000     0.2090 ha         1 1AO       0.113000
     31 H2           6.4610     3.2800     0.2290 ha         1 1AO       0.114000
     32 H3           4.0170     3.5680     0.2240 ha         1 1AO       0.146000
     33 H4           5.9950    -1.0000     0.1720 ha         1 1AO       0.111000
     34 H5           4.4440    -2.7770     0.6180 h1         1 1AO       0.038450
     35 H6           3.9490    -1.8360     2.0350 h1         1 1AO       0.038450
     36 H7           2.6920    -4.0140     1.8260 h1         1 1AO       0.065200
     37 H8           1.6270    -2.5990     1.8380 h1         1 1AO       0.065200
     38 H9           2.4940    -4.0950    -0.5660 hn         1 1AO       0.396000
     39 H11          1.0170    -2.7000    -1.8470 h1         1 1AO       0.065200
     40 H12          0.6190    -1.8110    -0.3680 h1         1 1AO       0.065200
     41 H13          2.2720    -0.5230    -1.6490 h1         1 1AO       0.038450
     42 H14          3.3540    -1.9160    -1.7760 h1         1 1AO       0.038450
     43 H15          1.6990     0.6140     0.2190 hn         1 1AO       0.209000
     44 H16         -1.1340     4.1140     0.1830 h4         1 1AO       0.184000
     45 H17         -2.9550    -3.4370     1.6160 h4         1 1AO       0.061800
     46 H18         -5.6600    -3.5480     0.3590 ha         1 1AO       0.125000
     47 H19         -7.1750    -2.2930    -1.2040 ha         1 1AO       0.120000
     48 H20         -6.4470    -0.1050    -2.1590 ha         1 1AO       0.118000
     49 H21         -4.2420     0.8600    -1.5590 ha         1 1AO       0.127000
@<TRIPOS>BOND
     1     1     2 ar  
     2     1     6 ar  
     3     1    30 1   
     4     2     3 ar  
     5     2    31 1   
     6     3     4 ar  
     7     3    32 1   
     8     4     5 ar  
     9     4    13 1   
    10     5     6 ar  
    11     5     7 1   
    12     6    33 1   
    13     7     8 1   
    14     7    12 1   
    15     8     9 1   
    16     8    34 1   
    17     8    35 1   
    18     9    10 1   
    19     9    36 1   
    20     9    37 1   
    21    10    11 1   
    22    10    38 1   
    23    11    12 1   
    24    11    39 1   
    25    11    40 1   
    26    12    41 1   
    27    12    42 1   
    28    13    14 1   
    29    13    43 1   
    30    14    15 2   
    31    14    16 1   
    32    16    17 1   
    33    16    20 2   
    34    17    18 2   
    35    18    19 1   
    36    18    21 1   
    37    19    20 1   
    38    20    44 1   
    39    21    22 1   
    40    21    29 1   
    41    22    23 2   
    42    23    24 1   
    43    23    45 1   
    44    24    25 ar  
    45    24    29 ar  
    46    25    26 ar  
    47    25    46 1   
    48    26    27 ar  
    49    26    47 1   
    50    27    28 ar  
    51    27    48 1   
    52    28    29 ar  
    53    28    49 1   
@<TRIPOS>SUBSTRUCTURE
     1 1AO         1 TEMP              0 ****  ****    0 ROOT
