@<TRIPOS>MOLECULE
1AQ
   88    92     1     0     0
SMALL
No Charge or Current Charge


@<TRIPOS>ATOM
      1 N40         -7.7810    -0.1770     0.8670 n7         1 1AQ      -0.856400
      2 C41         -8.8950     0.6800     1.3250 c3         1 1AQ       0.150100
      3 C37         -6.6110    -0.3370     1.7930 c3         1 1AQ       0.102500
      4 C39         -7.0360    -1.0960     3.0730 c3         1 1AQ      -0.130100
      5 C35         -5.3840    -1.0470     1.1140 c          1 1AQ       0.612100
      6 O36         -5.4290    -2.1970     0.6880 o          1 1AQ      -0.608100
      7 C30         -1.7630    -0.2490     1.3380 c          1 1AQ       0.594100
      8 O31         -1.9350     0.6470     2.1610 o          1 1AQ      -0.617100
      9 C32         -2.9510    -0.7240     0.4320 c3         1 1AQ       0.044700
     10 N34         -4.2370    -0.2840     1.0270 ns         1 1AQ      -0.494900
     11 C42         -2.8220    -0.2640    -1.0670 c6         1 1AQ      -0.072700
     12 C43         -3.8890    -0.9230    -1.9900 c6         1 1AQ      -0.069400
     13 C44         -3.6810    -0.5200    -3.4730 c6         1 1AQ      -0.126400
     14 C45         -3.6580     1.0180    -3.6410 c6         1 1AQ       0.180000
     15 F46         -3.3450     1.3330    -4.9750 f          1 1AQ      -0.125500
     16 F47         -4.9440     1.5370    -3.4050 f          1 1AQ      -0.125500
     17 C48         -2.6410     1.7090    -2.7020 c6         1 1AQ      -0.126400
     18 C49         -2.8520     1.2870    -1.2250 c6         1 1AQ      -0.069400
     19 C1           6.3810    -3.3450    -1.5630 c3         1 1AQ      -0.092100
     20 C2           5.4710    -3.9340    -0.4740 c3         1 1AQ       0.161600
     21 C4           3.0620    -4.0410     0.0800 c5         1 1AQ       0.174300
     22 C6           1.7030    -3.6140    -0.5690 c5         1 1AQ      -0.076400
     23 C7           0.9760    -2.8860     0.5910 c5         1 1AQ       0.156500
     24 C9          -0.1430    -1.8810     0.1720 c6         1 1AQ       0.106000
     25 N10         -0.4920    -0.8780     1.2390 n          1 1AQ      -0.375800
     26 C11          0.7160    -0.2610     1.9020 c6         1 1AQ       0.015700
     27 C13          1.7290    -1.3460     2.3590 c6         1 1AQ       0.176800
     28 N14          2.1090    -2.1710     1.1990 n3         1 1AQ      -0.711600
     29 C15          3.1030    -3.2400     1.4320 c5         1 1AQ       0.134800
     30 C16          1.3670     0.8320     1.0000 c          1 1AQ       0.601100
     31 O17          0.7640     1.8420     0.6630 o          1 1AQ      -0.595100
     32 N18          2.6590     0.5970     0.5830 ns         1 1AQ      -0.497900
     33 C19          3.4750     1.4450    -0.2860 c6         1 1AQ       0.162000
     34 C21          4.2420     0.5400    -1.2690 c6         1 1AQ      -0.125400
     35 C22          5.3350     1.3510    -1.9790 c6         1 1AQ       0.162600
     36 O23          6.2680     1.8750    -1.0150 os         1 1AQ      -0.343100
     37 C24          5.7860     2.4760     0.1290 ca         1 1AQ       0.146100
     38 C25          6.6730     3.2490     0.8960 ca         1 1AQ      -0.146000
     39 C26          6.2270     3.8930     2.0610 ca         1 1AQ      -0.073000
     40 C27          4.8880     3.7630     2.4590 ca         1 1AQ      -0.145000
     41 C28          3.9970     2.9810     1.7030 ca         1 1AQ      -0.061000
     42 C29          4.4390     2.3140     0.5390 ca         1 1AQ      -0.193300
     43 H34         -8.1490    -1.1110     0.6340 hn         1 1AQ       0.431000
     44 H36         -8.5330     1.6790     1.6000 h1         1 1AQ       0.030367
     45 H37         -9.6410     0.7970     0.5280 h1         1 1AQ       0.030367
     46 H38         -9.4030     0.2440     2.1960 h1         1 1AQ       0.030367
     47 H30         -6.2580     0.6560     2.1020 h1         1 1AQ       0.066700
     48 H31         -6.1700    -1.2480     3.7280 hc         1 1AQ       0.045700
     49 H32         -7.7850    -0.5330     3.6420 hc         1 1AQ       0.045700
     50 H33         -7.4530    -2.0810     2.8280 hc         1 1AQ       0.045700
     51 H28         -2.9310    -1.8200     0.4560 h1         1 1AQ       0.092700
     52 H29         -4.2740     0.6430     1.4380 hn         1 1AQ       0.331500
     53 H39         -1.8430    -0.6070    -1.4200 hc         1 1AQ       0.062700
     54 H40         -3.8440    -2.0170    -1.8970 hc         1 1AQ       0.060200
     55 H41         -4.8990    -0.6270    -1.6750 hc         1 1AQ       0.060200
     56 H42         -2.7360    -0.9430    -3.8390 hc         1 1AQ       0.067950
     57 H43         -4.4760    -0.9530    -4.0950 hc         1 1AQ       0.067950
     58 H44         -1.6200     1.4490    -3.0150 hc         1 1AQ       0.067950
     59 H45         -2.7250     2.8010    -2.7970 hc         1 1AQ       0.067950
     60 H46         -3.8100     1.6860    -0.8640 hc         1 1AQ       0.060200
     61 H47         -2.0710     1.7490    -0.6040 hc         1 1AQ       0.060200
     62 H1           6.2870    -2.2530    -1.5960 hc         1 1AQ       0.044367
     63 H2           7.4280    -3.5940    -1.3560 hc         1 1AQ       0.044367
     64 H3           6.1180    -3.7500    -2.5470 hc         1 1AQ       0.044367
     65 H4           5.5910    -5.0250    -0.4450 h1         1 1AQ       0.016700
     66 H5           5.7640    -3.5250     0.5000 h1         1 1AQ       0.016700
     67 H7           1.8600    -2.9410    -1.4200 hc         1 1AQ       0.068200
     68 H8           1.1310    -4.4730    -0.9340 hc         1 1AQ       0.068200
     69 H9           0.5470    -3.6050     1.3030 h1         1 1AQ       0.034700
     70 H10          0.2020    -1.3280    -0.7120 h1         1 1AQ       0.066200
     71 H11         -1.0220    -2.4650    -0.1290 h1         1 1AQ       0.066200
     72 H12          0.4050     0.2740     2.8090 h1         1 1AQ       0.094700
     73 H13          2.6110    -0.8710     2.8120 h1         1 1AQ       0.043200
     74 H14          1.2620    -1.9710     3.1340 h1         1 1AQ       0.043200
     75 H16          2.8000    -3.8850     2.2680 h1         1 1AQ       0.042700
     76 H17          4.0930    -2.8310     1.6670 h1         1 1AQ       0.042700
     77 H18          3.0160    -0.3260     0.8140 hn         1 1AQ       0.310500
     78 H19          2.8160     2.1140    -0.8620 h1         1 1AQ       0.093700
     79 H20          4.7080    -0.2990    -0.7340 hc         1 1AQ       0.061700
     80 H21          3.5510     0.1050    -2.0030 hc         1 1AQ       0.061700
     81 H22          5.8790     0.7210    -2.6980 h1         1 1AQ       0.057200
     82 H23          4.8830     2.1880    -2.5300 h1         1 1AQ       0.057200
     83 H24          7.7070     3.3550     0.5790 ha         1 1AQ       0.127000
     84 H25          6.9160     4.4960     2.6490 ha         1 1AQ       0.114000
     85 H26          4.5370     4.2670     3.3560 ha         1 1AQ       0.118000
     86 H27          2.9630     2.8970     2.0300 ha         1 1AQ       0.123000
     87 H6           3.1430    -5.1260     0.2320 h1         1 1AQ       0.037700
     88 O3           4.1180    -3.5820    -0.8070 os         1 1AQ      -0.445000
@<TRIPOS>BOND
     1     1     2 1   
     2     1     3 1   
     3     1    43 1   
     4     2    44 1   
     5     2    45 1   
     6     2    46 1   
     7     3     4 1   
     8     3     5 1   
     9     3    47 1   
    10     4    48 1   
    11     4    49 1   
    12     4    50 1   
    13     5     6 2   
    14     5    10 1   
    15     7     8 2   
    16     7     9 1   
    17     7    25 1   
    18     9    10 1   
    19     9    11 1   
    20     9    51 1   
    21    10    52 1   
    22    11    12 1   
    23    11    18 1   
    24    11    53 1   
    25    12    13 1   
    26    12    54 1   
    27    12    55 1   
    28    13    14 1   
    29    13    56 1   
    30    13    57 1   
    31    14    15 1   
    32    14    16 1   
    33    14    17 1   
    34    17    18 1   
    35    17    58 1   
    36    17    59 1   
    37    18    60 1   
    38    18    61 1   
    39    19    20 1   
    40    19    62 1   
    41    19    63 1   
    42    19    64 1   
    43    20    65 1   
    44    20    66 1   
    45    20    88 1   
    46    21    22 1   
    47    21    29 1   
    48    21    87 1   
    49    21    88 1   
    50    22    23 1   
    51    22    67 1   
    52    22    68 1   
    53    23    24 1   
    54    23    28 1   
    55    23    69 1   
    56    24    25 1   
    57    24    70 1   
    58    24    71 1   
    59    25    26 1   
    60    26    27 1   
    61    26    30 1   
    62    26    72 1   
    63    27    28 1   
    64    27    73 1   
    65    27    74 1   
    66    28    29 1   
    67    29    75 1   
    68    29    76 1   
    69    30    31 2   
    70    30    32 1   
    71    32    33 1   
    72    32    77 1   
    73    33    34 1   
    74    33    42 1   
    75    33    78 1   
    76    34    35 1   
    77    34    79 1   
    78    34    80 1   
    79    35    36 1   
    80    35    81 1   
    81    35    82 1   
    82    36    37 1   
    83    37    38 ar  
    84    37    42 ar  
    85    38    39 ar  
    86    38    83 1   
    87    39    40 ar  
    88    39    84 1   
    89    40    41 ar  
    90    40    85 1   
    91    41    42 ar  
    92    41    86 1   
@<TRIPOS>SUBSTRUCTURE
     1 1AQ         1 TEMP              0 ****  ****    0 ROOT
