@<TRIPOS>MOLECULE
1AQ
   88    92     1     0     0
SMALL
bcc


@<TRIPOS>ATOM
      1 N40         -6.9750     0.1500     1.6270 n7         1 1AQ      -0.801200
      2 C41         -7.9120     1.0450     2.2760 c3         1 1AQ       0.150100
      3 C37         -5.6140     0.2660     2.1010 c3         1 1AQ       0.102500
      4 C39         -5.3690    -0.1720     3.5500 c3         1 1AQ      -0.130100
      5 C35         -4.7130    -0.5640     1.1980 c          1 1AQ       0.679100
      6 O36         -5.0520    -1.6640     0.7850 o          1 1AQ      -0.608100
      7 C30         -1.1590    -0.4990     1.0800 c          1 1AQ       0.661100
      8 O31         -1.0580     0.4760     1.8100 o          1 1AQ      -0.617100
      9 C32         -2.4370    -0.6950     0.2660 c3         1 1AQ       0.044700
     10 N34         -3.5130    -0.0140     0.9380 ns         1 1AQ      -0.561900
     11 C42         -2.2170    -0.1850    -1.1750 c6         1 1AQ      -0.072700
     12 C43         -3.3880    -0.5610    -2.0820 c6         1 1AQ      -0.069400
     13 C44         -3.1110    -0.1490    -3.5260 c6         1 1AQ      -0.126400
     14 C45         -2.7760     1.3230    -3.6180 c6         1 1AQ       0.422600
     15 F46         -2.4560     1.6450    -4.9100 f          1 1AQ      -0.246800
     16 F47         -3.8990     2.0550    -3.3300 f          1 1AQ      -0.246800
     17 C48         -1.6580     1.7370    -2.6910 c6         1 1AQ      -0.126400
     18 C49         -1.9470     1.3180    -1.2520 c6         1 1AQ      -0.069400
     19 C1           5.1710    -5.4810    -2.8500 c3         1 1AQ      -0.092100
     20 C2           4.4940    -5.6340    -1.5060 c3         1 1AQ       0.138400
     21 C4           2.4840    -5.1210    -0.3810 c5         1 1AQ       0.151100
     22 C6           1.0490    -4.6430    -0.6820 c5         1 1AQ      -0.076400
     23 C7           0.7650    -3.5870     0.3790 c5         1 1AQ       0.156500
     24 C9          -0.1450    -2.4620    -0.0580 c6         1 1AQ       0.106000
     25 N10         -0.1520    -1.3990     0.9450 n          1 1AQ      -0.442800
     26 C11          1.1400    -0.9740     1.4540 c6         1 1AQ       0.015700
     27 C13          2.0410    -2.1640     1.7790 c6         1 1AQ       0.176800
     28 N14          2.0780    -3.0620     0.6670 n3         1 1AQ      -0.711600
     29 C15          2.9400    -4.2150     0.7790 c5         1 1AQ       0.134800
     30 C16          1.7700     0.0050     0.4490 c          1 1AQ       0.668100
     31 O17          1.2960     0.1870    -0.6530 o          1 1AQ      -0.595100
     32 N18          2.8580     0.6500     0.9150 ns         1 1AQ      -0.564900
     33 C19          3.5300     1.7120     0.1970 c6         1 1AQ       0.162000
     34 C21          5.0380     1.4980     0.1890 c6         1 1AQ      -0.125400
     35 C22          5.7050     2.7350    -0.3740 c6         1 1AQ       0.139400
     36 O23          5.4550     3.8750     0.4220 os         1 1AQ      -0.319900
     37 C24          4.1870     4.0630     0.8470 ca         1 1AQ       0.146100
     38 C25          3.8950     5.3100     1.3960 ca         1 1AQ      -0.164000
     39 C26          2.6230     5.5810     1.8610 ca         1 1AQ      -0.091000
     40 C27          1.6270     4.6150     1.7800 ca         1 1AQ      -0.163000
     41 C28          1.9250     3.3770     1.2420 ca         1 1AQ      -0.079000
     42 C29          3.2020     3.0750     0.7730 ca         1 1AQ      -0.193300
     43 H34         -7.2890    -0.8070     1.7210 hn         1 1AQ       0.375800
     44 H36         -7.6410     2.0820     2.0690 h1         1 1AQ       0.030367
     45 H37         -8.9070     0.8820     1.8630 h1         1 1AQ       0.030367
     46 H38         -7.9920     0.9380     3.3630 h1         1 1AQ       0.030367
     47 H30         -5.3330     1.3220     2.0140 h1         1 1AQ       0.066700
     48 H31         -4.3270    -0.0350     3.8420 hc         1 1AQ       0.045700
     49 H32         -5.9730     0.4110     4.2420 hc         1 1AQ       0.045700
     50 H33         -5.6200    -1.2250     3.6870 hc         1 1AQ       0.045700
     51 H28         -2.7120    -1.7500     0.2180 h1         1 1AQ       0.092700
     52 H29         -3.2780     0.8600     1.3820 hn         1 1AQ       0.331500
     53 H39         -1.3270    -0.6920    -1.5620 hc         1 1AQ       0.062700
     54 H40         -3.5620    -1.6390    -2.0480 hc         1 1AQ       0.060200
     55 H41         -4.3050    -0.0830    -1.7290 hc         1 1AQ       0.060200
     56 H42         -2.2610    -0.7200    -3.9120 hc         1 1AQ       0.067950
     57 H43         -3.9650    -0.3770    -4.1680 hc         1 1AQ       0.067950
     58 H44         -0.7330     1.2620    -3.0240 hc         1 1AQ       0.067950
     59 H45         -1.5040     2.8170    -2.7550 hc         1 1AQ       0.067950
     60 H46         -2.8090     1.8730    -0.8720 hc         1 1AQ       0.060200
     61 H47         -1.0900     1.5980    -0.6400 hc         1 1AQ       0.060200
     62 H1           5.3320    -4.4310    -3.0920 hc         1 1AQ       0.044367
     63 H2           6.1410    -5.9760    -2.8370 hc         1 1AQ       0.044367
     64 H3           4.5750    -5.9280    -3.6450 hc         1 1AQ       0.044367
     65 H4           4.3600    -6.7000    -1.2700 h1         1 1AQ       0.016700
     66 H5           5.1400    -5.2200    -0.7190 h1         1 1AQ       0.016700
     67 H7           1.0340    -4.2000    -1.6790 hc         1 1AQ       0.068200
     68 H8           0.3240    -5.4550    -0.6640 hc         1 1AQ       0.068200
     69 H9           0.3290    -4.0680     1.2770 h1         1 1AQ       0.034700
     70 H10          0.2010    -2.0790    -1.0210 h1         1 1AQ       0.066200
     71 H11         -1.1520    -2.8530    -0.1900 h1         1 1AQ       0.066200
     72 H12          0.9720    -0.4330     2.3880 h1         1 1AQ       0.094700
     73 H13          3.0470    -1.8070     2.0060 h1         1 1AQ       0.043200
     74 H14          1.6630    -2.6500     2.6960 h1         1 1AQ       0.043200
     75 H16          2.7980    -4.7450     1.7380 h1         1 1AQ       0.042700
     76 H17          3.9920    -3.9320     0.7170 h1         1 1AQ       0.042700
     77 H18          3.1030     0.5430     1.8870 hn         1 1AQ       0.310500
     78 H19          3.1660     1.6600    -0.8310 h1         1 1AQ       0.093700
     79 H20          5.4080     1.3130     1.2020 hc         1 1AQ       0.061700
     80 H21          5.2940     0.6280    -0.4160 hc         1 1AQ       0.061700
     81 H22          6.7880     2.6200    -0.4070 h1         1 1AQ       0.057200
     82 H23          5.3600     2.9150    -1.4000 h1         1 1AQ       0.057200
     83 H24          4.6780     6.0550     1.4520 ha         1 1AQ       0.145000
     84 H25          2.4060     6.5530     2.2850 ha         1 1AQ       0.132000
     85 H26          0.6290     4.8270     2.1380 ha         1 1AQ       0.136000
     86 H27          1.1480     2.6230     1.1930 ha         1 1AQ       0.141000
     87 H6           2.4920    -6.1700    -0.0540 h1         1 1AQ       0.037700
     88 O3           3.2510    -4.9790    -1.5440 os         1 1AQ      -0.398600
@<TRIPOS>BOND
     1     1     2 1   
     2     1     3 1   
     3     1    43 1   
     4     2    44 1   
     5     2    45 1   
     6     2    46 1   
     7     3     4 1   
     8     3     5 1   
     9     3    47 1   
    10     4    48 1   
    11     4    49 1   
    12     4    50 1   
    13     5     6 2   
    14     5    10 1   
    15     7     8 2   
    16     7     9 1   
    17     7    25 1   
    18     9    10 1   
    19     9    11 1   
    20     9    51 1   
    21    10    52 1   
    22    11    12 1   
    23    11    18 1   
    24    11    53 1   
    25    12    13 1   
    26    12    54 1   
    27    12    55 1   
    28    13    14 1   
    29    13    56 1   
    30    13    57 1   
    31    14    15 1   
    32    14    16 1   
    33    14    17 1   
    34    17    18 1   
    35    17    58 1   
    36    17    59 1   
    37    18    60 1   
    38    18    61 1   
    39    19    20 1   
    40    19    62 1   
    41    19    63 1   
    42    19    64 1   
    43    20    65 1   
    44    20    66 1   
    45    20    88 1   
    46    21    22 1   
    47    21    29 1   
    48    21    87 1   
    49    21    88 1   
    50    22    23 1   
    51    22    67 1   
    52    22    68 1   
    53    23    24 1   
    54    23    28 1   
    55    23    69 1   
    56    24    25 1   
    57    24    70 1   
    58    24    71 1   
    59    25    26 1   
    60    26    27 1   
    61    26    30 1   
    62    26    72 1   
    63    27    28 1   
    64    27    73 1   
    65    27    74 1   
    66    28    29 1   
    67    29    75 1   
    68    29    76 1   
    69    30    31 2   
    70    30    32 1   
    71    32    33 1   
    72    32    77 1   
    73    33    34 1   
    74    33    42 1   
    75    33    78 1   
    76    34    35 1   
    77    34    79 1   
    78    34    80 1   
    79    35    36 1   
    80    35    81 1   
    81    35    82 1   
    82    36    37 1   
    83    37    38 ar  
    84    37    42 ar  
    85    38    39 ar  
    86    38    83 1   
    87    39    40 ar  
    88    39    84 1   
    89    40    41 ar  
    90    40    85 1   
    91    41    42 ar  
    92    41    86 1   
@<TRIPOS>SUBSTRUCTURE
     1 1AQ         1 TEMP              0 ****  ****    0 ROOT
