@<TRIPOS>MOLECULE
1AS
   76    80     1     0     0
SMALL
bcc


@<TRIPOS>ATOM
      1 O22         -9.6040    -4.3810    64.7890 os         1 1AS      -0.325900
      2 C21        -16.2390    -5.0190    73.8460 c3         1 1AS      -0.096100
      3 C23         -9.1030    -5.4340    63.9720 c3         1 1AS       0.124700
      4 C25        -12.3840    -4.4180    64.8170 c3         1 1AS      -0.002900
      5 C28        -11.7860    -4.6340    61.7690 c3         1 1AS      -0.051900
      6 C32        -16.7170    -4.1040    68.2050 c3         1 1AS       0.198600
      7 C38         -7.2850    -3.5990    68.6850 ca         1 1AS      -0.145300
      8 C35        -19.5190    -4.4690    65.4930 c          1 1AS       0.907800
      9 C34        -18.4320    -4.8140    66.4920 ce         1 1AS      -0.168200
     10 C33        -17.7900    -3.8910    67.2000 c2         1 1AS      -0.248200
     11 C17        -17.4370    -6.4610    72.2270 c2         1 1AS      -0.246200
     12 C16        -16.3560    -6.4260    73.2680 c6         1 1AS       0.213000
     13 C12        -14.7750    -6.3990    71.4510 ca         1 1AS       0.227100
     14 C13        -15.7830    -6.1140    70.5120 ca         1 1AS      -0.218800
     15 C14        -15.4220    -5.7510    69.2240 ca         1 1AS       0.272100
     16 C18        -17.1640    -6.2800    70.9380 ce         1 1AS      -0.037200
     17 C5         -12.1820    -5.2360    67.2610 ca         1 1AS      -0.240600
     18 C4         -11.3370    -5.5100    68.3350 ca         1 1AS       0.194100
     19 C3          -9.9540    -5.4190    68.2570 ca         1 1AS      -0.252000
     20 C6         -11.5870    -4.8380    66.0320 ca         1 1AS       0.039700
     21 C2          -9.3840    -5.0650    67.0520 ca         1 1AS       0.166100
     22 C1         -10.2060    -4.7800    65.9400 ca         1 1AS       0.022100
     23 O7         -11.7970    -5.8990    69.5430 os         1 1AS      -0.226200
     24 C8         -13.1120    -5.9560    69.8080 ca         1 1AS       0.208100
     25 C9         -14.0660    -5.6710    68.8290 ca         1 1AS      -0.298600
     26 C10        -13.6330    -5.4030    67.4490 c          1 1AS       0.601300
     27 C11        -13.4400    -6.3150    71.1080 ca         1 1AS      -0.240000
     28 O15        -15.0830    -6.7960    72.6880 os         1 1AS      -0.330900
     29 O19        -14.4280    -5.3480    66.5240 o          1 1AS      -0.488100
     30 C26        -12.7000    -5.5800    63.9170 c2         1 1AS      -0.140200
     31 C27        -12.4460    -5.6840    62.6100 c2         1 1AS      -0.131400
     32 C29        -12.8280    -6.9230    61.8530 c3         1 1AS      -0.051900
     33 O30        -16.4220    -5.4840    68.3570 os         1 1AS      -0.320900
     34 C31         -7.1760    -4.9020    67.9380 c3         1 1AS       0.189700
     35 O36        -20.0470    -5.4450    64.9190 o          1 1AS      -0.834300
     36 O37        -19.7950    -3.2630    65.3290 o          1 1AS      -0.834300
     37 C39         -7.4240    -2.3980    67.9930 ca         1 1AS      -0.081000
     38 C40         -7.4730    -1.1890    68.6690 ca         1 1AS      -0.172500
     39 C41         -7.3730    -1.1960    70.0480 ca         1 1AS       0.141900
     40 C42         -7.2370    -2.3670    70.7660 ca         1 1AS      -0.172500
     41 C43         -7.1990    -3.5690    70.0710 ca         1 1AS      -0.081000
     42 F44         -7.4110    -0.0270    70.7070 f          1 1AS      -0.144900
     43 H1         -15.4630    -4.9730    74.6130 hc         1 1AS       0.045200
     44 H2         -16.0090    -4.2900    73.0680 hc         1 1AS       0.045200
     45 H3         -17.1840    -4.7280    74.3050 hc         1 1AS       0.045200
     46 H4          -8.7130    -4.9730    63.0670 h1         1 1AS       0.035700
     47 H5          -8.2950    -5.9830    64.4610 h1         1 1AS       0.035700
     48 H6          -9.8950    -6.1340    63.6980 h1         1 1AS       0.035700
     49 H7         -11.8180    -3.6600    64.2810 hc         1 1AS       0.077700
     50 H8         -13.3100    -3.9420    65.1350 hc         1 1AS       0.077700
     51 H9         -11.4290    -3.7750    62.3340 hc         1 1AS       0.034867
     52 H10        -10.9320    -5.0560    61.2330 hc         1 1AS       0.034867
     53 H11        -12.4770    -4.2660    61.0060 hc         1 1AS       0.034867
     54 H12        -15.8230    -3.5450    67.9030 h1         1 1AS       0.014200
     55 H13        -17.0330    -3.6820    69.1690 h1         1 1AS       0.014200
     56 H14        -18.1930    -5.8660    66.6120 ha         1 1AS       0.108000
     57 H15        -18.0510    -2.8470    67.0590 ha         1 1AS       0.142000
     58 H16        -18.4550    -6.5950    72.5740 ha         1 1AS       0.138000
     59 H17        -17.9520    -6.2720    70.1970 ha         1 1AS       0.169000
     60 H18         -9.3650    -5.6390    69.1370 ha         1 1AS       0.153000
     61 H19        -12.6640    -6.5330    71.8300 ha         1 1AS       0.157000
     62 H20        -15.8200    -7.4350    75.1080 hc         1 1AS       0.045200
     63 H21        -17.5530    -7.2160    74.8650 hc         1 1AS       0.045200
     64 H22        -16.6930    -8.4570    73.9510 hc         1 1AS       0.045200
     65 H23        -13.1940    -6.4150    64.4030 ha         1 1AS       0.136000
     66 H24        -13.3180    -7.6610    62.4880 hc         1 1AS       0.034867
     67 H25        -13.5030    -6.6870    61.0260 hc         1 1AS       0.034867
     68 H26        -11.9460    -7.3920    61.4070 hc         1 1AS       0.034867
     69 H27         -7.3090    -5.7530    68.6130 h1         1 1AS       0.060200
     70 H28         -6.1860    -5.0020    67.4920 h1         1 1AS       0.060200
     71 H30         -7.4980    -2.3940    66.9130 ha         1 1AS       0.143000
     72 H31         -7.5820    -0.2560    68.1320 ha         1 1AS       0.150000
     73 H32         -7.1680    -2.3470    71.8460 ha         1 1AS       0.150000
     74 H33         -7.1000    -4.4950    70.6260 ha         1 1AS       0.143000
     75 C20        -16.6150    -7.4490    74.3620 c3         1 1AS      -0.096100
     76 O24         -8.0680    -4.9620    66.8360 os         1 1AS      -0.307900
@<TRIPOS>BOND
     1     1     3 1   
     2     1    22 1   
     3     2    12 1   
     4     2    43 1   
     5     2    44 1   
     6     2    45 1   
     7     3    46 1   
     8     3    47 1   
     9     3    48 1   
    10     4    20 1   
    11     4    30 1   
    12     4    49 1   
    13     4    50 1   
    14     5    31 1   
    15     5    51 1   
    16     5    52 1   
    17     5    53 1   
    18     6    10 1   
    19     6    33 1   
    20     6    54 1   
    21     6    55 1   
    22     7    34 1   
    23     7    37 ar  
    24     7    41 ar  
    25     8     9 1   
    26     8    35 1   
    27     8    36 1   
    28     9    10 2   
    29     9    56 1   
    30    10    57 1   
    31    11    12 1   
    32    11    16 2   
    33    11    58 1   
    34    12    28 1   
    35    12    75 1   
    36    13    14 ar  
    37    13    27 ar  
    38    13    28 1   
    39    14    15 ar  
    40    14    16 1   
    41    15    25 ar  
    42    15    33 1   
    43    16    59 1   
    44    17    18 ar  
    45    17    20 ar  
    46    17    26 1   
    47    18    19 ar  
    48    18    23 1   
    49    19    21 ar  
    50    19    60 1   
    51    20    22 ar  
    52    21    22 ar  
    53    21    76 1   
    54    23    24 1   
    55    24    25 ar  
    56    24    27 ar  
    57    25    26 1   
    58    26    29 2   
    59    27    61 1   
    60    30    31 2   
    61    30    65 1   
    62    31    32 1   
    63    32    66 1   
    64    32    67 1   
    65    32    68 1   
    66    34    69 1   
    67    34    70 1   
    68    34    76 1   
    69    37    38 ar  
    70    37    71 1   
    71    38    39 ar  
    72    38    72 1   
    73    39    40 ar  
    74    39    42 1   
    75    40    41 ar  
    76    40    73 1   
    77    41    74 1   
    78    62    75 1   
    79    63    75 1   
    80    64    75 1   
@<TRIPOS>SUBSTRUCTURE
     1 1AS         1 TEMP              0 ****  ****    0 ROOT
