@<TRIPOS>MOLECULE
1AS
   76    80     1     0     0
SMALL
No Charge or Current Charge


@<TRIPOS>ATOM
      1 O22         -9.8520    -4.2690    64.6280 os         1 1AS      -0.349100
      2 C21        -15.8710    -4.5700    73.9640 c3         1 1AS      -0.096100
      3 C23         -9.0540    -5.0890    63.7560 c3         1 1AS       0.147900
      4 C25        -12.6500    -4.5590    64.8210 c3         1 1AS      -0.002900
      5 C28        -11.9980    -4.5090    61.6750 c3         1 1AS      -0.051900
      6 C32        -16.6020    -4.2190    68.0810 c3         1 1AS       0.221800
      7 C38         -7.4290    -3.7330    68.7470 ca         1 1AS      -0.145300
      8 C35        -18.9540    -4.5450    64.9130 c          1 1AS       0.697200
      9 C34        -17.7840    -4.5980    65.8470 ce         1 1AS      -0.218200
     10 C33        -17.7790    -4.1680    67.1360 c2         1 1AS      -0.298200
     11 C17        -17.3270    -6.0450    72.5420 c2         1 1AS      -0.296200
     12 C16        -16.1730    -6.0290    73.5330 c6         1 1AS       0.236200
     13 C12        -14.6820    -6.3500    71.6180 ca         1 1AS       0.227100
     14 C13        -15.7130    -6.0850    70.7010 ca         1 1AS      -0.218800
     15 C14        -15.4030    -5.8900    69.3400 ca         1 1AS       0.272100
     16 C18        -17.1050    -6.0430    71.2150 ce         1 1AS      -0.087200
     17 C5         -12.2190    -5.5290    67.1980 ca         1 1AS      -0.240600
     18 C4         -11.3110    -5.8200    68.2310 ca         1 1AS       0.194100
     19 C3          -9.9390    -5.6170    68.0710 ca         1 1AS      -0.234000
     20 C6         -11.7280    -4.9770    65.9770 ca         1 1AS       0.039700
     21 C2          -9.4330    -5.0970    66.8670 ca         1 1AS       0.166100
     22 C1         -10.3300    -4.7890    65.8170 ca         1 1AS       0.022100
     23 O7         -11.7440    -6.3110    69.4370 os         1 1AS      -0.226200
     24 C8         -13.0540    -6.2380    69.8310 ca         1 1AS       0.208100
     25 C9         -14.0650    -5.9790    68.8970 ca         1 1AS      -0.298600
     26 C10        -13.6670    -5.8510    67.4620 c          1 1AS       0.601300
     27 C11        -13.3580    -6.4350    71.1820 ca         1 1AS      -0.222000
     28 O15        -14.9610    -6.5650    72.9530 os         1 1AS      -0.354100
     29 O19        -14.4510    -6.1090    66.5600 o          1 1AS      -0.488100
     30 C26        -12.8370    -5.6760    63.8010 c2         1 1AS      -0.190200
     31 C27        -12.5680    -5.6710    62.4790 c2         1 1AS      -0.131400
     32 C29        -12.8140    -6.8890    61.6080 c3         1 1AS      -0.051900
     33 O30        -16.4220    -5.5840    68.4750 os         1 1AS      -0.344100
     34 C31         -7.1250    -4.8680    67.7680 c3         1 1AS       0.212900
     35 O36        -18.7940    -4.9760    63.7820 o          1 1AS      -0.729000
     36 O37        -20.0100    -4.0770    65.3110 o          1 1AS      -0.729000
     37 C39         -7.6660    -2.4260    68.2710 ca         1 1AS      -0.063000
     38 C40         -7.9520    -1.3860    69.1720 ca         1 1AS      -0.154500
     39 C41         -7.9990    -1.6470    70.5490 ca         1 1AS       0.177000
     40 C42         -7.7590    -2.9420    71.0330 ca         1 1AS      -0.154500
     41 C43         -7.4720    -3.9840    70.1340 ca         1 1AS      -0.063000
     42 F44         -8.2740    -0.6470    71.4140 f          1 1AS      -0.180000
     43 H1         -15.0230    -4.5260    74.6580 hc         1 1AS       0.045200
     44 H2         -15.6270    -3.9430    73.0980 hc         1 1AS       0.045200
     45 H3         -16.7350    -4.1180    74.4640 hc         1 1AS       0.045200
     46 H4          -8.7980    -4.5350    62.8450 h1         1 1AS       0.035700
     47 H5          -8.1200    -5.3980    64.2400 h1         1 1AS       0.035700
     48 H6          -9.6080    -5.9900    63.4640 h1         1 1AS       0.035700
     49 H7         -12.2600    -3.6490    64.3580 hc         1 1AS       0.077700
     50 H8         -13.6250    -4.2330    65.1990 hc         1 1AS       0.077700
     51 H9         -11.7910    -3.6190    62.2750 hc         1 1AS       0.034867
     52 H10        -11.0550    -4.7950    61.1940 hc         1 1AS       0.034867
     53 H11        -12.6930    -4.2070    60.8830 hc         1 1AS       0.034867
     54 H12        -15.7030    -3.8350    67.5810 h1         1 1AS       0.014200
     55 H13        -16.7990    -3.5910    68.9590 h1         1 1AS       0.014200
     56 H14        -16.8820    -5.0280    65.4160 ha         1 1AS       0.158000
     57 H15        -18.6780    -3.7390    67.5810 ha         1 1AS       0.192000
     58 H16        -18.3380    -6.0200    72.9500 ha         1 1AS       0.188000
     59 H17        -17.9230    -6.0250    70.4880 ha         1 1AS       0.219000
     60 H18         -9.2850    -5.8670    68.8980 ha         1 1AS       0.135000
     61 H19        -12.5650    -6.6450    71.8930 ha         1 1AS       0.139000
     62 H20        -15.6640    -6.9070    75.4840 hc         1 1AS       0.045200
     63 H21        -17.3800    -6.5100    75.3070 hc         1 1AS       0.045200
     64 H22        -16.7130    -7.9300    74.4870 hc         1 1AS       0.045200
     65 H23        -13.2440    -6.5830    64.2510 ha         1 1AS       0.186000
     66 H24        -13.2250    -7.7280    62.1830 hc         1 1AS       0.034867
     67 H25        -13.5260    -6.6630    60.8050 hc         1 1AS       0.034867
     68 H26        -11.8840    -7.2360    61.1420 hc         1 1AS       0.034867
     69 H27         -7.1290    -5.8380    68.2820 h1         1 1AS       0.060200
     70 H28         -6.1140    -4.7200    67.3680 h1         1 1AS       0.060200
     71 H30         -7.6330    -2.2190    67.2030 ha         1 1AS       0.125000
     72 H31         -8.1380    -0.3800    68.8050 ha         1 1AS       0.132000
     73 H32         -7.7950    -3.1350    72.1020 ha         1 1AS       0.132000
     74 H33         -7.2870    -4.9860    70.5180 ha         1 1AS       0.125000
     75 C20        -16.5010    -6.8940    74.7750 c3         1 1AS      -0.096100
     76 O24         -8.0800    -4.8540    66.6900 os         1 1AS      -0.331100
@<TRIPOS>BOND
     1     1     3 1   
     2     1    22 1   
     3     2    12 1   
     4     2    43 1   
     5     2    44 1   
     6     2    45 1   
     7     3    46 1   
     8     3    47 1   
     9     3    48 1   
    10     4    20 1   
    11     4    30 1   
    12     4    49 1   
    13     4    50 1   
    14     5    31 1   
    15     5    51 1   
    16     5    52 1   
    17     5    53 1   
    18     6    10 1   
    19     6    33 1   
    20     6    54 1   
    21     6    55 1   
    22     7    34 1   
    23     7    37 ar  
    24     7    41 ar  
    25     8     9 1   
    26     8    35 1   
    27     8    36 1   
    28     9    10 2   
    29     9    56 1   
    30    10    57 1   
    31    11    12 1   
    32    11    16 2   
    33    11    58 1   
    34    12    28 1   
    35    12    75 1   
    36    13    14 ar  
    37    13    27 ar  
    38    13    28 1   
    39    14    15 ar  
    40    14    16 1   
    41    15    25 ar  
    42    15    33 1   
    43    16    59 1   
    44    17    18 ar  
    45    17    20 ar  
    46    17    26 1   
    47    18    19 ar  
    48    18    23 1   
    49    19    21 ar  
    50    19    60 1   
    51    20    22 ar  
    52    21    22 ar  
    53    21    76 1   
    54    23    24 1   
    55    24    25 ar  
    56    24    27 ar  
    57    25    26 1   
    58    26    29 2   
    59    27    61 1   
    60    30    31 2   
    61    30    65 1   
    62    31    32 1   
    63    32    66 1   
    64    32    67 1   
    65    32    68 1   
    66    34    69 1   
    67    34    70 1   
    68    34    76 1   
    69    37    38 ar  
    70    37    71 1   
    71    38    39 ar  
    72    38    72 1   
    73    39    40 ar  
    74    39    42 1   
    75    40    41 ar  
    76    40    73 1   
    77    41    74 1   
    78    62    75 1   
    79    63    75 1   
    80    64    75 1   
@<TRIPOS>SUBSTRUCTURE
     1 1AS         1 TEMP              0 ****  ****    0 ROOT
