@<TRIPOS>MOLECULE
1AT
   74    75     1     0     0
SMALL
bcc


@<TRIPOS>ATOM
      1 C5N          6.1160    -0.9150     0.2900 c3         1 1AT      -0.075400
      2 C4N          4.6940    -0.3730     0.3530 c3         1 1AT      -0.074400
      3 C3N          3.6580    -1.4890     0.3620 c3         1 1AT      -0.071400
      4 C2N          2.2310    -0.9680     0.4080 c3         1 1AT      -0.135400
      5 C1N          1.1990    -2.0650     0.4140 c          1 1AT       0.640100
      6 O1N          1.4420    -3.2450     0.3860 o          1 1AT      -0.530000
      7 O6          -0.0360    -1.5790     0.4520 os         1 1AT      -0.430900
      8 C6          -1.1210    -2.5070     0.4240 c3         1 1AT       0.150400
      9 C5          -2.4030    -1.7060     0.3720 c6         1 1AT       0.139100
     10 C4          -3.6230    -2.6300     0.3960 c6         1 1AT       0.130100
     11 C3          -4.8890    -1.8180     0.1550 c6         1 1AT       0.086100
     12 C2          -4.7480    -1.0220    -1.1410 c6         1 1AT       0.103100
     13 C1          -3.4870    -0.1590    -1.0770 c6         1 1AT       0.322900
     14 O5          -2.3700    -0.9610    -0.8320 os         1 1AT      -0.422600
     15 O1          -3.6800     0.7750    -0.0600 os         1 1AT      -0.459600
     16 C16         -3.2060     2.1050    -0.1420 c5         1 1AT       0.368600
     17 C15         -2.3260     2.4010     1.0770 c5         1 1AT       0.118100
     18 C14         -0.9480     1.9810     0.5910 c5         1 1AT       0.071100
     19 C13         -1.0070     2.4220    -0.8710 c5         1 1AT       0.112100
     20 O2          -2.3840     2.3140    -1.2470 os         1 1AT      -0.393600
     21 C12         -0.1330     1.6040    -1.7870 c3         1 1AT       0.134400
     22 O7          -0.1940     2.1400    -3.0860 oh         1 1AT      -0.583800
     23 O4           0.0560     2.6120     1.3420 oh         1 1AT      -0.589800
     24 O3          -2.7950     1.7550     2.2190 oh         1 1AT      -0.560800
     25 C17         -4.4240     3.0150    -0.2020 c3         1 1AT       0.137400
     26 O8          -5.2440     2.6090    -1.2720 oh         1 1AT      -0.593800
     27 O9          -5.9030    -0.2770    -1.4280 oh         1 1AT      -0.604800
     28 O11         -5.9640    -2.7280     0.0930 oh         1 1AT      -0.606800
     29 O10         -3.6400    -3.2780     1.6440 oh         1 1AT      -0.597800
     30 H1           6.2810    -1.5870     1.1410 hc         1 1AT       0.040700
     31 H2           6.2250    -1.5360    -0.6060 hc         1 1AT       0.040700
     32 H4           4.5770     0.2480     1.2470 hc         1 1AT       0.035700
     33 H5           4.5190     0.2890    -0.5020 hc         1 1AT       0.035700
     34 H6           3.7890    -2.1110    -0.5270 hc         1 1AT       0.057200
     35 H7           3.8360    -2.1420     1.2210 hc         1 1AT       0.057200
     36 H8           2.0750    -0.3440     1.2950 hc         1 1AT       0.061700
     37 H9           2.0340    -0.3180    -0.4510 hc         1 1AT       0.061700
     38 H10         -1.0440    -3.1550    -0.4540 h1         1 1AT       0.067200
     39 H11         -1.1060    -3.1340     1.3160 h1         1 1AT       0.067200
     40 H12         -2.4530    -1.0360     1.2410 h1         1 1AT       0.083700
     41 H13         -3.5210    -3.3580    -0.4260 h1         1 1AT       0.049700
     42 H14         -5.0200    -1.1210     0.9950 h1         1 1AT       0.063700
     43 H15         -4.6070    -1.7360    -1.9620 h1         1 1AT       0.082700
     44 H16         -3.3030     0.3140    -2.0450 h2         1 1AT       0.108700
     45 H17         -2.3080     3.4940     1.2140 h1         1 1AT       0.052700
     46 H18         -0.8560     0.8890     0.6510 h1         1 1AT       0.084700
     47 H19         -0.7110     3.4770    -0.9350 h1         1 1AT       0.076700
     48 H20          0.8900     1.6420    -1.3840 h1         1 1AT       0.031700
     49 H21         -0.4550     0.5560    -1.7540 h1         1 1AT       0.031700
     50 H22          0.3710     1.6110    -3.6560 ho         1 1AT       0.407000
     51 H23          0.8750     2.1190     1.2520 ho         1 1AT       0.414000
     52 H24         -2.3950     2.1740     2.9860 ho         1 1AT       0.416000
     53 H25         -4.9510     2.9550     0.7580 h1         1 1AT       0.040700
     54 H26         -4.0810     4.0490    -0.3220 h1         1 1AT       0.040700
     55 H27         -6.0460     3.1400    -1.2600 ho         1 1AT       0.414000
     56 H28         -5.7770     0.6400    -1.1410 ho         1 1AT       0.436000
     57 H29         -6.7850    -2.2250     0.0770 ho         1 1AT       0.424000
     58 H30         -4.4200    -3.8420     1.6780 ho         1 1AT       0.427000
     59 C7           7.1890     0.1650     0.2870 c3         1 1AT      -0.073400
     60 C8           8.6000    -0.4060     0.2210 c3         1 1AT      -0.075400
     61 C9           9.6910     0.6570     0.2210 c3         1 1AT      -0.075400
     62 C10         11.0970     0.0720     0.1530 c3         1 1AT      -0.075400
     63 C11         12.1850     1.1370     0.1580 c3         1 1AT      -0.088100
     64 H3           7.0290     0.8390    -0.5620 hc         1 1AT       0.036700
     65 H31          7.0880     0.7840     1.1860 hc         1 1AT       0.036700
     66 H32          8.7540    -1.0840     1.0670 hc         1 1AT       0.037700
     67 H33          8.6970    -1.0240    -0.6790 hc         1 1AT       0.037700
     68 H34          9.5410     1.3360    -0.6250 hc         1 1AT       0.036700
     69 H35          9.5990     1.2750     1.1220 hc         1 1AT       0.036700
     70 H36         11.2440    -0.6080     0.9980 hc         1 1AT       0.036700
     71 H37         11.1870    -0.5430    -0.7480 hc         1 1AT       0.036700
     72 H38         13.1800     0.6940     0.1130 hc         1 1AT       0.031700
     73 H39         12.0830     1.8070    -0.6980 hc         1 1AT       0.031700
     74 H40         12.1350     1.7470     1.0610 hc         1 1AT       0.031700
@<TRIPOS>BOND
     1     1     2 1   
     2     1    30 1   
     3     1    31 1   
     4     1    59 1   
     5     2     3 1   
     6     2    32 1   
     7     2    33 1   
     8     3     4 1   
     9     3    34 1   
    10     3    35 1   
    11     4     5 1   
    12     4    36 1   
    13     4    37 1   
    14     5     6 2   
    15     5     7 1   
    16     7     8 1   
    17     8     9 1   
    18     8    38 1   
    19     8    39 1   
    20     9    10 1   
    21     9    14 1   
    22     9    40 1   
    23    10    11 1   
    24    10    29 1   
    25    10    41 1   
    26    11    12 1   
    27    11    28 1   
    28    11    42 1   
    29    12    13 1   
    30    12    27 1   
    31    12    43 1   
    32    13    14 1   
    33    13    15 1   
    34    13    44 1   
    35    15    16 1   
    36    16    17 1   
    37    16    20 1   
    38    16    25 1   
    39    17    18 1   
    40    17    24 1   
    41    17    45 1   
    42    18    19 1   
    43    18    23 1   
    44    18    46 1   
    45    19    20 1   
    46    19    21 1   
    47    19    47 1   
    48    21    22 1   
    49    21    48 1   
    50    21    49 1   
    51    22    50 1   
    52    23    51 1   
    53    24    52 1   
    54    25    26 1   
    55    25    53 1   
    56    25    54 1   
    57    26    55 1   
    58    27    56 1   
    59    28    57 1   
    60    29    58 1   
    61    59    60 1   
    62    59    64 1   
    63    59    65 1   
    64    60    61 1   
    65    60    66 1   
    66    60    67 1   
    67    61    62 1   
    68    61    68 1   
    69    61    69 1   
    70    62    63 1   
    71    62    70 1   
    72    62    71 1   
    73    63    72 1   
    74    63    73 1   
    75    63    74 1   
@<TRIPOS>SUBSTRUCTURE
     1 1AT         1 TEMP              0 ****  ****    0 ROOT
