@<TRIPOS>MOLECULE
1AT
   74    75     1     0     0
SMALL
No Charge or Current Charge


@<TRIPOS>ATOM
      1 C5N          5.4630    -0.9500    -0.1580 c3         1 1AT      -0.075400
      2 C4N          4.4770    -0.8940    -1.3460 c3         1 1AT      -0.074400
      3 C3N          3.2770    -1.8510    -1.1790 c3         1 1AT      -0.071400
      4 C2N          2.2890    -1.7940    -2.3680 c3         1 1AT      -0.135400
      5 C1N          1.0950    -2.7250    -2.1460 c          1 1AT       0.591100
      6 O1N          1.0860    -3.9060    -2.4640 o          1 1AT      -0.481000
      7 O6           0.0900    -2.1000    -1.4590 os         1 1AT      -0.454100
      8 C6          -1.0980    -2.8620    -1.1550 c3         1 1AT       0.173600
      9 C5          -2.0830    -1.9830    -0.3330 c6         1 1AT       0.162300
     10 C4          -3.3150    -2.7890     0.1810 c6         1 1AT       0.153300
     11 C3          -4.2880    -1.8240     0.9160 c6         1 1AT       0.109300
     12 C2          -4.6920    -0.6470    -0.0180 c6         1 1AT       0.126300
     13 C1          -3.3920     0.0730    -0.5480 c6         1 1AT       0.369300
     14 O5          -2.5340    -0.8970    -1.1900 os         1 1AT      -0.469000
     15 O1          -2.6270     0.7120     0.4970 os         1 1AT      -0.506000
     16 C16         -2.5810     2.1720     0.5600 c5         1 1AT       0.415000
     17 C15         -1.5090     2.5640     1.6400 c5         1 1AT       0.141300
     18 C14         -0.2280     2.0290     0.9400 c5         1 1AT       0.094300
     19 C13         -0.5010     2.5300    -0.5250 c5         1 1AT       0.135300
     20 O2          -1.9520     2.6610    -0.6460 os         1 1AT      -0.440000
     21 C12          0.0660     1.5960    -1.6300 c3         1 1AT       0.157600
     22 O7           0.0040     2.2220    -2.9250 oh         1 1AT      -0.706000
     23 O4           0.9680     2.5620     1.5380 oh         1 1AT      -0.712000
     24 O3          -1.6980     2.0360     2.9680 oh         1 1AT      -0.683000
     25 C17         -3.9760     2.8510     0.8150 c3         1 1AT       0.160600
     26 O8          -4.9430     2.6390    -0.2450 oh         1 1AT      -0.716000
     27 O9          -5.6160     0.2280     0.6780 oh         1 1AT      -0.727000
     28 O11         -5.4610    -2.5270     1.3650 oh         1 1AT      -0.669000
     29 O10         -2.9400    -3.8550     1.0700 oh         1 1AT      -0.720000
     30 H1           4.9280    -0.6990     0.7670 hc         1 1AT       0.040700
     31 H2           5.8340    -1.9760    -0.0450 hc         1 1AT       0.040700
     32 H4           4.1070     0.1320    -1.4590 hc         1 1AT       0.035700
     33 H5           5.0130    -1.1460    -2.2700 hc         1 1AT       0.035700
     34 H6           3.6450    -2.8790    -1.0650 hc         1 1AT       0.057200
     35 H7           2.7420    -1.6010    -0.2540 hc         1 1AT       0.057200
     36 H8           1.9270    -0.7620    -2.4400 hc         1 1AT       0.061700
     37 H9           2.8130    -2.0860    -3.2860 hc         1 1AT       0.061700
     38 H10         -1.5980    -3.1980    -2.0730 h1         1 1AT       0.067200
     39 H11         -0.8390    -3.7490    -0.5620 h1         1 1AT       0.067200
     40 H12         -1.5330    -1.5690     0.5250 h1         1 1AT       0.083700
     41 H13         -3.8380    -3.2050    -0.6940 h1         1 1AT       0.049700
     42 H14         -3.7580    -1.3970     1.7810 h1         1 1AT       0.063700
     43 H15         -5.1920    -1.0730    -0.9010 h1         1 1AT       0.082700
     44 H16         -3.6790     0.8150    -1.3090 h2         1 1AT       0.108700
     45 H17         -1.4570     3.6610     1.7010 h1         1 1AT       0.052700
     46 H18         -0.2080     0.9290     0.9670 h1         1 1AT       0.084700
     47 H19         -0.0630     3.5290    -0.6640 h1         1 1AT       0.076700
     48 H20          1.1080     1.3550    -1.3840 h1         1 1AT       0.031700
     49 H21         -0.4980     0.6550    -1.6280 h1         1 1AT       0.031700
     50 H22          0.2300     1.5330    -3.5920 ho         1 1AT       0.506000
     51 H23          1.7420     2.1070     1.1290 ho         1 1AT       0.513000
     52 H24         -0.8160     2.0960     3.4050 ho         1 1AT       0.515000
     53 H25         -4.3690     2.4650     1.7640 h1         1 1AT       0.040700
     54 H26         -3.8120     3.9270     0.9590 h1         1 1AT       0.040700
     55 H27         -4.7100     3.2710    -0.9700 ho         1 1AT       0.513000
     56 H28         -5.4470     1.1550     0.3330 ho         1 1AT       0.535000
     57 H29         -6.1340    -1.8180     1.5010 ho         1 1AT       0.463000
     58 H30         -3.7660    -4.0580     1.5730 ho         1 1AT       0.526000
     59 C7           6.6630     0.0080    -0.3240 c3         1 1AT      -0.073400
     60 C8           7.6490    -0.0480     0.8630 c3         1 1AT      -0.075400
     61 C9           8.8500     0.9100     0.6970 c3         1 1AT      -0.075400
     62 C10          9.8360     0.8540     1.8840 c3         1 1AT      -0.075400
     63 C11         11.0350     1.8090     1.7180 c3         1 1AT      -0.088100
     64 H3           7.1980    -0.2430    -1.2490 hc         1 1AT       0.036700
     65 H31          6.2920     1.0340    -0.4370 hc         1 1AT       0.036700
     66 H32          7.1140     0.2030     1.7880 hc         1 1AT       0.037700
     67 H33          8.0200    -1.0740     0.9760 hc         1 1AT       0.037700
     68 H34          9.3850     0.6590    -0.2280 hc         1 1AT       0.036700
     69 H35          8.4800     1.9360     0.5840 hc         1 1AT       0.036700
     70 H36          9.3050     1.1070     2.8100 hc         1 1AT       0.036700
     71 H37         10.2110    -0.1710     1.9980 hc         1 1AT       0.036700
     72 H38         11.7050     1.7350     2.5820 hc         1 1AT       0.031700
     73 H39         11.6080     1.5590     0.8170 hc         1 1AT       0.031700
     74 H40         10.6940     2.8480     1.6360 hc         1 1AT       0.031700
@<TRIPOS>BOND
     1     1     2 1   
     2     1    30 1   
     3     1    31 1   
     4     1    59 1   
     5     2     3 1   
     6     2    32 1   
     7     2    33 1   
     8     3     4 1   
     9     3    34 1   
    10     3    35 1   
    11     4     5 1   
    12     4    36 1   
    13     4    37 1   
    14     5     6 2   
    15     5     7 1   
    16     7     8 1   
    17     8     9 1   
    18     8    38 1   
    19     8    39 1   
    20     9    10 1   
    21     9    14 1   
    22     9    40 1   
    23    10    11 1   
    24    10    29 1   
    25    10    41 1   
    26    11    12 1   
    27    11    28 1   
    28    11    42 1   
    29    12    13 1   
    30    12    27 1   
    31    12    43 1   
    32    13    14 1   
    33    13    15 1   
    34    13    44 1   
    35    15    16 1   
    36    16    17 1   
    37    16    20 1   
    38    16    25 1   
    39    17    18 1   
    40    17    24 1   
    41    17    45 1   
    42    18    19 1   
    43    18    23 1   
    44    18    46 1   
    45    19    20 1   
    46    19    21 1   
    47    19    47 1   
    48    21    22 1   
    49    21    48 1   
    50    21    49 1   
    51    22    50 1   
    52    23    51 1   
    53    24    52 1   
    54    25    26 1   
    55    25    53 1   
    56    25    54 1   
    57    26    55 1   
    58    27    56 1   
    59    28    57 1   
    60    29    58 1   
    61    59    60 1   
    62    59    64 1   
    63    59    65 1   
    64    60    61 1   
    65    60    66 1   
    66    60    67 1   
    67    61    62 1   
    68    61    68 1   
    69    61    69 1   
    70    62    63 1   
    71    62    70 1   
    72    62    71 1   
    73    63    72 1   
    74    63    73 1   
    75    63    74 1   
@<TRIPOS>SUBSTRUCTURE
     1 1AT         1 TEMP              0 ****  ****    0 ROOT
