@<TRIPOS>MOLECULE
1AU
   55    58     1     0     0
SMALL
No Charge or Current Charge


@<TRIPOS>ATOM
      1 CBB          4.4840    -0.6990     0.1420 ca         1 1AU      -0.043000
      2 CAO          4.0390    -1.9650    -0.3110 ca         1 1AU      -0.101000
      3 CAG          4.9590    -2.9960    -0.5700 ca         1 1AU      -0.104000
      4 CAF          6.3320    -2.7790    -0.3840 ca         1 1AU      -0.106000
      5 CAM          6.7890    -1.5300     0.0610 ca         1 1AU      -0.095000
      6 CBA          5.8740    -0.4920     0.3240 ca         1 1AU      -0.029000
      7 CAN          6.3520     0.7530     0.7680 ca         1 1AU      -0.101000
      8 CAI          5.4530     1.7930     1.0400 ca         1 1AU      -0.096000
      9 CAL          4.0750     1.5980     0.8640 ca         1 1AU      -0.094000
     10 CAX          3.5720     0.3590     0.4070 ca         1 1AU      -0.024000
     11 NAS          2.1730     0.1410     0.2390 ns         1 1AU      -0.187000
     12 CAU          1.1090     1.0200     0.1070 c          1 1AU       0.669100
     13 OAE          1.2190     2.2370     0.0510 o          1 1AU      -0.589100
     14 NAT         -0.1000     0.3590     0.0250 ns         1 1AU      -0.424100
     15 CAZ         -1.3820     0.8870    -0.1200 cc         1 1AU       0.020600
     16 CAQ         -1.7780     2.1910    -0.1850 cd         1 1AU      -0.218000
     17 CAY         -3.1930     2.2110    -0.3140 cd         1 1AU       0.276300
     18 CBD         -4.0560     3.4700    -0.4210 c3         1 1AU      -0.072300
     19 CAB         -5.5720     3.1400    -0.5490 c3         1 1AU      -0.079767
     20 CAC         -3.8460     4.3360     0.8490 c3         1 1AU      -0.079767
     21 CAA         -3.6200     4.2770    -1.6720 c3         1 1AU      -0.079767
     22 NAR         -3.7130     0.9910    -0.3360 nc         1 1AU      -0.507800
     23 NBC         -2.5900     0.2070    -0.2090 na         1 1AU       0.181000
     24 CAW         -2.7000    -1.1870    -0.2310 ca         1 1AU       0.057800
     25 CAP         -3.5140    -1.8500     0.7100 ca         1 1AU      -0.171000
     26 CAK         -2.0000    -1.9450    -1.1920 ca         1 1AU      -0.178000
     27 CAH         -2.1060    -3.3450    -1.2060 ca         1 1AU      -0.062000
     28 CAJ         -2.9180    -3.9940    -0.2600 ca         1 1AU      -0.184000
     29 CAV         -3.6210    -3.2470     0.6950 ca         1 1AU       0.307000
     30 NAD         -4.4110    -3.8850     1.6110 nv         1 1AU      -1.073000
     31 HAO          2.9840    -2.1700    -0.4720 ha         1 1AU       0.108000
     32 HAG          4.6050    -3.9640    -0.9180 ha         1 1AU       0.113000
     33 HAF          7.0430    -3.5790    -0.5860 ha         1 1AU       0.115000
     34 HAM          7.8560    -1.3680     0.2020 ha         1 1AU       0.115000
     35 HAN          7.4180     0.9140     0.9090 ha         1 1AU       0.116000
     36 HAI          5.8250     2.7530     1.3930 ha         1 1AU       0.118000
     37 HAL          3.4090     2.4200     1.1060 ha         1 1AU       0.128000
     38 HNAS         1.9140    -0.8350     0.2260 hn         1 1AU       0.153000
     39 HNAT        -0.0230    -0.6490     0.0820 hn         1 1AU       0.325500
     40 HAQ         -1.1410     3.0660    -0.1440 ha         1 1AU       0.163000
     41 HAB         -5.9300     2.5800     0.3240 hc         1 1AU       0.036589
     42 HABA        -6.1680     4.0570    -0.6240 hc         1 1AU       0.036589
     43 HABB        -5.7710     2.5390    -1.4460 hc         1 1AU       0.036589
     44 HAC         -2.7970     4.6390     0.9530 hc         1 1AU       0.036589
     45 HACA        -4.4560     5.2470     0.8090 hc         1 1AU       0.036589
     46 HACB        -4.1280     3.7780     1.7500 hc         1 1AU       0.036589
     47 HAA         -3.7390     3.6760    -2.5820 hc         1 1AU       0.036589
     48 HAAA        -4.2230     5.1860    -1.7840 hc         1 1AU       0.036589
     49 HAAB        -2.5680     4.5790    -1.6030 hc         1 1AU       0.036589
     50 HAP         -4.0580    -1.2730     1.4530 ha         1 1AU       0.137000
     51 HAK         -1.3790    -1.4470    -1.9340 ha         1 1AU       0.130000
     52 HAH         -1.5650    -3.9270    -1.9500 ha         1 1AU       0.115000
     53 HAJ         -2.9980    -5.0770    -0.2740 ha         1 1AU       0.116000
     54 HNAD        -5.0380    -3.3440     2.2040 hn         1 1AU       0.454000
     55 HNAA        -4.6040    -4.8800     1.5090 hn         1 1AU       0.454000
@<TRIPOS>BOND
     1     1     2 ar  
     2     1     6 ar  
     3     1    10 ar  
     4     2     3 ar  
     5     2    31 1   
     6     3     4 ar  
     7     3    32 1   
     8     4     5 ar  
     9     4    33 1   
    10     5     6 ar  
    11     5    34 1   
    12     6     7 ar  
    13     7     8 ar  
    14     7    35 1   
    15     8     9 ar  
    16     8    36 1   
    17     9    10 ar  
    18     9    37 1   
    19    10    11 1   
    20    11    12 1   
    21    11    38 1   
    22    12    13 2   
    23    12    14 1   
    24    14    15 1   
    25    14    39 1   
    26    15    16 2   
    27    15    23 1   
    28    16    17 1   
    29    16    40 1   
    30    17    18 1   
    31    17    22 2   
    32    18    19 1   
    33    18    20 1   
    34    18    21 1   
    35    19    41 1   
    36    19    42 1   
    37    19    43 1   
    38    20    44 1   
    39    20    45 1   
    40    20    46 1   
    41    21    47 1   
    42    21    48 1   
    43    21    49 1   
    44    22    23 1   
    45    23    24 1   
    46    24    25 ar  
    47    24    26 ar  
    48    25    29 ar  
    49    25    50 1   
    50    26    27 ar  
    51    26    51 1   
    52    27    28 ar  
    53    27    52 1   
    54    28    29 ar  
    55    28    53 1   
    56    29    30 1   
    57    30    54 1   
    58    30    55 1   
@<TRIPOS>SUBSTRUCTURE
     1 1AU         1 TEMP              0 ****  ****    0 ROOT
