@<TRIPOS>MOLECULE
1AU
   55    58     1     0     0
SMALL
bcc


@<TRIPOS>ATOM
      1 CBB          4.3280    -0.6260     0.1120 ca         1 1AU      -0.043000
      2 CAO          3.8540    -1.7900    -0.5380 ca         1 1AU      -0.119000
      3 CAG          4.7150    -2.6160    -1.2100 ca         1 1AU      -0.122000
      4 CAF          6.0920    -2.3200    -1.2690 ca         1 1AU      -0.124000
      5 CAM          6.5770    -1.1940    -0.6620 ca         1 1AU      -0.113000
      6 CBA          5.7130    -0.3180     0.0370 ca         1 1AU      -0.029000
      7 CAN          6.1980     0.8630     0.6450 ca         1 1AU      -0.119000
      8 CAI          5.3460     1.6990     1.3090 ca         1 1AU      -0.114000
      9 CAL          3.9780     1.3870     1.4150 ca         1 1AU      -0.112000
     10 CAX          3.4740     0.2530     0.8330 ca         1 1AU       0.068600
     11 NAS          2.1070    -0.0650     0.9550 ns         1 1AU      -0.513100
     12 CAU          1.1180     0.7360     0.4680 c          1 1AU       0.803100
     13 OAE          1.3210     1.7790    -0.1230 o          1 1AU      -0.589100
     14 NAT         -0.1420     0.2450     0.7100 ns         1 1AU      -0.491100
     15 CAZ         -1.2960     0.8720     0.2820 cc         1 1AU       0.071300
     16 CAQ         -1.6310     2.1970     0.1500 cd         1 1AU      -0.301300
     17 CAY         -2.9840     2.1840    -0.2540 cd         1 1AU       0.341600
     18 CBD         -3.8440     3.3790    -0.5700 c3         1 1AU      -0.072300
     19 CAB         -5.2830     2.9580    -0.8670 c3         1 1AU      -0.079767
     20 CAC         -3.8330     4.3440     0.6210 c3         1 1AU      -0.079767
     21 CAA         -3.2620     4.0880    -1.7990 c3         1 1AU      -0.079767
     22 NAR         -3.4370     0.9530    -0.3500 nc         1 1AU      -0.507800
     23 NBC         -2.4020     0.1530    -0.0450 na         1 1AU       0.130300
     24 CAW         -2.5690    -1.2500    -0.0510 ca         1 1AU       0.057800
     25 CAP         -3.7000    -1.7830     0.5490 ca         1 1AU      -0.189000
     26 CAK         -1.6220    -2.0640    -0.6620 ca         1 1AU      -0.196000
     27 CAH         -1.8270    -3.4380    -0.6410 ca         1 1AU      -0.080000
     28 CAJ         -2.9500    -3.9890    -0.0500 ca         1 1AU      -0.202000
     29 CAV         -3.9130    -3.1650     0.5480 ca         1 1AU       0.168600
     30 NAD         -5.0600    -3.6960     1.0860 nv         1 1AU      -0.824200
     31 HAO          2.7990    -2.0290    -0.5140 ha         1 1AU       0.126000
     32 HAG          4.3360    -3.5000    -1.7040 ha         1 1AU       0.131000
     33 HAF          6.7610    -2.9820    -1.8030 ha         1 1AU       0.133000
     34 HAM          7.6320    -0.9560    -0.7120 ha         1 1AU       0.133000
     35 HAN          7.2540     1.0950     0.5760 ha         1 1AU       0.134000
     36 HAI          5.7190     2.6020     1.7740 ha         1 1AU       0.136000
     37 HAL          3.3240     2.0390     1.9770 ha         1 1AU       0.146000
     38 HNAS         1.8710    -0.9640     1.3460 hn         1 1AU       0.319500
     39 HNAT        -0.2470    -0.6170     1.2240 hn         1 1AU       0.325500
     40 HAQ         -0.9990     3.0470     0.3330 ha         1 1AU       0.181000
     41 HAB         -5.7430     2.4580    -0.0140 hc         1 1AU       0.036589
     42 HABA        -5.8820     3.8380    -1.1030 hc         1 1AU       0.036589
     43 HABB        -5.3370     2.2800    -1.7190 hc         1 1AU       0.036589
     44 HAC         -2.8230     4.6800     0.8600 hc         1 1AU       0.036589
     45 HACA        -4.4300     5.2290     0.3920 hc         1 1AU       0.036589
     46 HACB        -4.2500     3.8770     1.5140 hc         1 1AU       0.036589
     47 HAA         -3.2470     3.4270    -2.6680 hc         1 1AU       0.036589
     48 HAAA        -3.8620     4.9640    -2.0540 hc         1 1AU       0.036589
     49 HAAB        -2.2400     4.4280    -1.6220 hc         1 1AU       0.036589
     50 HAP         -4.4210    -1.1250     1.0180 ha         1 1AU       0.155000
     51 HAK         -0.7610    -1.6450    -1.1640 ha         1 1AU       0.148000
     52 HAH         -1.1010    -4.0890    -1.1100 ha         1 1AU       0.133000
     53 HAJ         -3.0910    -5.0640    -0.0530 ha         1 1AU       0.134000
     54 HNAD        -5.5340    -3.1290     1.7700 hn         1 1AU       0.398800
     55 HNAA        -5.0130    -4.6640     1.3620 hn         1 1AU       0.398800
@<TRIPOS>BOND
     1     1     2 ar  
     2     1     6 ar  
     3     1    10 ar  
     4     2     3 ar  
     5     2    31 1   
     6     3     4 ar  
     7     3    32 1   
     8     4     5 ar  
     9     4    33 1   
    10     5     6 ar  
    11     5    34 1   
    12     6     7 ar  
    13     7     8 ar  
    14     7    35 1   
    15     8     9 ar  
    16     8    36 1   
    17     9    10 ar  
    18     9    37 1   
    19    10    11 1   
    20    11    12 1   
    21    11    38 1   
    22    12    13 2   
    23    12    14 1   
    24    14    15 1   
    25    14    39 1   
    26    15    16 2   
    27    15    23 1   
    28    16    17 1   
    29    16    40 1   
    30    17    18 1   
    31    17    22 2   
    32    18    19 1   
    33    18    20 1   
    34    18    21 1   
    35    19    41 1   
    36    19    42 1   
    37    19    43 1   
    38    20    44 1   
    39    20    45 1   
    40    20    46 1   
    41    21    47 1   
    42    21    48 1   
    43    21    49 1   
    44    22    23 1   
    45    23    24 1   
    46    24    25 ar  
    47    24    26 ar  
    48    25    29 ar  
    49    25    50 1   
    50    26    27 ar  
    51    26    51 1   
    52    27    28 ar  
    53    27    52 1   
    54    28    29 ar  
    55    28    53 1   
    56    29    30 1   
    57    30    54 1   
    58    30    55 1   
@<TRIPOS>SUBSTRUCTURE
     1 1AU         1 TEMP              0 ****  ****    0 ROOT
