@<TRIPOS>MOLECULE
1AV
   30    33     1     0     0
SMALL
No Charge or Current Charge


@<TRIPOS>ATOM
      1 N7          -3.9870     2.7840    -0.1470 nv         1 1AV      -1.059900
      2 C6          -2.9050     1.9720    -0.1090 ca         1 1AV       0.432900
      3 N1          -1.7080     2.5700    -0.1140 nb         1 1AV      -0.229000
      4 N5          -3.1650     0.6580    -0.0700 nb         1 1AV      -0.297000
      5 C4          -2.1100    -0.1920    -0.0340 ca         1 1AV       0.346500
      6 N8          -2.2760    -1.5770     0.0030 na         1 1AV      -0.202000
      7 C12         -3.2370    -2.2330     0.7360 cc         1 1AV      -0.193000
      8 C11         -3.1010    -3.5440     0.3480 cd         1 1AV       0.232900
      9 N10         -2.1130    -3.6780    -0.6190 nd         1 1AV      -0.665000
     10 C9          -1.6300    -2.4560    -0.8280 cc         1 1AV       0.438400
     11 C3          -0.7890     0.3470    -0.0340 ca         1 1AV      -0.087600
     12 N13          0.4090    -0.3790     0.0210 nc         1 1AV      -0.509100
     13 C14          1.4110     0.5140     0.0130 cd         1 1AV       0.429800
     14 S15          1.0000     2.2500    -0.0600 ss         1 1AV      -0.142500
     15 C2          -0.6670     1.7270    -0.0750 ca         1 1AV       0.190300
     16 C16          2.8160     0.0680     0.0640 ca         1 1AV      -0.172900
     17 C21          3.1210    -1.3090     0.1440 ca         1 1AV       0.380900
     18 N20          4.3860    -1.7930     0.1940 nb         1 1AV      -0.665000
     19 C19          5.4050    -0.9070     0.1640 ca         1 1AV       0.351900
     20 C18          5.2030     0.4790     0.0840 ca         1 1AV      -0.165000
     21 C17          3.8930     0.9820     0.0330 ca         1 1AV      -0.057000
     22 H1          -4.8940     2.3860     0.0860 hn         1 1AV       0.512000
     23 H2          -3.8600     3.7730     0.0580 hn         1 1AV       0.512000
     24 H3          -3.9060    -1.7560     1.4410 h4         1 1AV       0.175000
     25 H4          -3.6680    -4.3970     0.7000 h4         1 1AV       0.041100
     26 H5          -0.8650    -2.1630    -1.5390 h5         1 1AV       0.084100
     27 H6           2.3350    -2.0630     0.1710 h4         1 1AV       0.039100
     28 H7           6.4130    -1.3200     0.2050 h4         1 1AV       0.024100
     29 H8           6.0570     1.1510     0.0630 ha         1 1AV       0.129000
     30 H9           3.7360     2.0570    -0.0290 ha         1 1AV       0.123000
@<TRIPOS>BOND
     1     1     2 1   
     2     1    22 1   
     3     1    23 1   
     4     2     3 ar  
     5     2     4 ar  
     6     3    15 ar  
     7     4     5 ar  
     8     5     6 1   
     9     5    11 ar  
    10     6     7 1   
    11     6    10 1   
    12     7     8 2   
    13     7    24 1   
    14     8     9 1   
    15     8    25 1   
    16     9    10 2   
    17    10    26 1   
    18    11    12 1   
    19    11    15 ar  
    20    12    13 2   
    21    13    14 1   
    22    13    16 1   
    23    14    15 1   
    24    16    17 ar  
    25    16    21 ar  
    26    17    18 ar  
    27    17    27 1   
    28    18    19 ar  
    29    19    20 ar  
    30    19    28 1   
    31    20    21 ar  
    32    20    29 1   
    33    21    30 1   
@<TRIPOS>SUBSTRUCTURE
     1 1AV         1 TEMP              0 ****  ****    0 ROOT
