@<TRIPOS>MOLECULE
1AV
   30    33     1     0     0
SMALL
bcc


@<TRIPOS>ATOM
      1 N7          -3.9560     2.6870     0.0330 nv         1 1AV      -0.949500
      2 C6          -2.8630     1.9190     0.0430 ca         1 1AV       0.958900
      3 N1          -1.6730     2.5280     0.0210 nb         1 1AV      -0.755000
      4 N5          -3.0580     0.5890     0.0620 nb         1 1AV      -0.823000
      5 C4          -2.0210    -0.2120     0.0560 ca         1 1AV       0.674800
      6 N8          -2.3030    -1.5740     0.0780 na         1 1AV      -0.252700
      7 C12         -3.5740    -2.1180     0.1080 cc         1 1AV      -0.225600
      8 C11         -3.3900    -3.4600     0.1180 cd         1 1AV       0.298200
      9 N10         -2.0500    -3.7650     0.0940 nd         1 1AV      -0.665000
     10 C9          -1.4260    -2.6290     0.0700 cc         1 1AV       0.438400
     11 C3          -0.7160     0.3040     0.0300 ca         1 1AV      -0.218200
     12 N13          0.4830    -0.3420     0.0190 nc         1 1AV      -0.509100
     13 C14          1.4680     0.4870    -0.0050 cd         1 1AV       0.429800
     14 S15          1.0100     2.1860    -0.0170 ss         1 1AV      -0.142500
     15 C2          -0.6520     1.7020     0.0130 ca         1 1AV       0.518600
     16 C16          2.8690     0.0860    -0.0240 ca         1 1AV      -0.238200
     17 C21          3.2040    -1.2700    -0.0670 ca         1 1AV       0.446200
     18 N20          4.4490    -1.7140    -0.0840 nb         1 1AV      -0.665000
     19 C19          5.4350    -0.8220    -0.0600 ca         1 1AV       0.417200
     20 C18          5.2160     0.5470    -0.0180 ca         1 1AV      -0.248300
     21 C17          3.9130     1.0080     0.0000 ca         1 1AV      -0.075000
     22 H1          -4.8670     2.2750     0.1260 hn         1 1AV       0.456800
     23 H2          -3.8710     3.6860     0.0920 hn         1 1AV       0.456800
     24 H3          -4.4580    -1.5080     0.1210 h4         1 1AV       0.193000
     25 H4          -4.1470    -4.2270     0.1410 h4         1 1AV       0.041100
     26 H5          -0.3580    -2.4900     0.0500 h5         1 1AV       0.084100
     27 H6           2.4210    -2.0180    -0.0880 h4         1 1AV       0.039100
     28 H7           6.4460    -1.2140    -0.0760 h4         1 1AV       0.024100
     29 H8           6.0490     1.2350     0.0000 ha         1 1AV       0.147000
     30 H9           3.7250     2.0750     0.0350 ha         1 1AV       0.141000
@<TRIPOS>BOND
     1     1     2 1   
     2     1    22 1   
     3     1    23 1   
     4     2     3 ar  
     5     2     4 ar  
     6     3    15 ar  
     7     4     5 ar  
     8     5     6 1   
     9     5    11 ar  
    10     6     7 1   
    11     6    10 1   
    12     7     8 2   
    13     7    24 1   
    14     8     9 1   
    15     8    25 1   
    16     9    10 2   
    17    10    26 1   
    18    11    12 1   
    19    11    15 ar  
    20    12    13 2   
    21    13    14 1   
    22    13    16 1   
    23    14    15 1   
    24    16    17 ar  
    25    16    21 ar  
    26    17    18 ar  
    27    17    27 1   
    28    18    19 ar  
    29    19    20 ar  
    30    19    28 1   
    31    20    21 ar  
    32    20    29 1   
    33    21    30 1   
@<TRIPOS>SUBSTRUCTURE
     1 1AV         1 TEMP              0 ****  ****    0 ROOT
