@<TRIPOS>MOLECULE
1AW
   49    51     1     0     0
SMALL
No Charge or Current Charge


@<TRIPOS>ATOM
      1 CBB          5.1300     0.0530    -0.0600 ca         1 1AW      -0.152500
      2 CBA          6.5120     0.3080    -0.0960 ca         1 1AW      -0.081500
      3 CAN          6.9850     1.6280    -0.1480 ca         1 1AW      -0.137000
      4 CAI          6.0750     2.6970    -0.1640 ca         1 1AW      -0.081500
      5 CAL          4.6930     2.4420    -0.1270 ca         1 1AW      -0.152500
      6 CAX          4.2050     1.1220    -0.0740 ca         1 1AW      -0.005000
      7 NAS          2.7940     0.9460    -0.0400 ns         1 1AW      -0.161000
      8 CAU          1.9940    -0.1870     0.0240 c          1 1AW       0.676100
      9 OAE          2.4140    -1.3350     0.0680 o          1 1AW      -0.592100
     10 NAT          0.6500     0.1310     0.0350 ns         1 1AW      -0.422100
     11 CAZ         -0.4530    -0.7200     0.0900 cc         1 1AW       0.025600
     12 CAQ         -0.4940    -2.0830     0.1160 cd         1 1AW      -0.224000
     13 CAY         -1.8590    -2.4780     0.1510 cd         1 1AW       0.279300
     14 CBD         -2.3640    -3.9210     0.1890 c3         1 1AW      -0.072300
     15 CAB         -1.8570    -4.6670    -1.0730 c3         1 1AW      -0.080433
     16 CAC         -1.8060    -4.6200     1.4570 c3         1 1AW      -0.080433
     17 CAA         -3.9180    -4.0050     0.2220 c3         1 1AW      -0.080433
     18 NAR         -2.6830    -1.4390     0.1500 nc         1 1AW      -0.510800
     19 NBC         -1.8010    -0.3840     0.1060 na         1 1AW       0.179000
     20 CAW         -2.2780     0.9310     0.1320 ca         1 1AW       0.056800
     21 CAP         -3.1750     1.3810    -0.8560 ca         1 1AW      -0.169000
     22 CAK         -1.8660     1.8200     1.1460 ca         1 1AW      -0.181000
     23 CAH         -2.3410     3.1420     1.1670 ca         1 1AW      -0.061000
     24 CAJ         -3.2320     3.5790     0.1720 ca         1 1AW      -0.184000
     25 CAV         -3.6500     2.7000    -0.8360 ca         1 1AW       0.307000
     26 NAD         -4.5200     3.1320    -1.7990 nv         1 1AW      -1.075000
     27 HBB          4.8020    -0.9810    -0.0210 ha         1 1AW       0.128000
     28 HBA          7.2180    -0.5210    -0.0850 ha         1 1AW       0.113500
     29 HAN          8.0550     1.8240    -0.1770 ha         1 1AW       0.116000
     30 HAI          6.4390     3.7210    -0.2050 ha         1 1AW       0.113500
     31 HAL          3.9990     3.2790    -0.1400 ha         1 1AW       0.128000
     32 HNAS         2.2810     1.8160    -0.0680 hn         1 1AW       0.147000
     33 HNAT         0.4610     1.1250    -0.0050 hn         1 1AW       0.328500
     34 HAQ          0.3520    -2.7590     0.1090 ha         1 1AW       0.165000
     35 HAB         -0.7610    -4.6810    -1.1130 hc         1 1AW       0.036700
     36 HABA        -2.2060    -5.7070    -1.0830 hc         1 1AW       0.036700
     37 HABB        -2.2220    -4.1790    -1.9850 hc         1 1AW       0.036700
     38 HAC         -2.1330    -4.0970     2.3640 hc         1 1AW       0.036700
     39 HACA        -2.1530    -5.6580     1.5200 hc         1 1AW       0.036700
     40 HACB        -0.7090    -4.6330     1.4530 hc         1 1AW       0.036700
     41 HAA         -4.3580    -3.5360    -0.6670 hc         1 1AW       0.036700
     42 HAAA        -4.2540    -5.0490     0.2480 hc         1 1AW       0.036700
     43 HAAB        -4.3220    -3.5030     1.1100 hc         1 1AW       0.036700
     44 HAP         -3.4980     0.7020    -1.6400 ha         1 1AW       0.138000
     45 HAK         -1.1850     1.4830     1.9250 ha         1 1AW       0.130000
     46 HAH         -2.0220     3.8250     1.9520 ha         1 1AW       0.116000
     47 HAJ         -3.5970     4.6030     0.1910 ha         1 1AW       0.116000
     48 HNAD        -4.9420     2.4610    -2.4380 hn         1 1AW       0.455000
     49 HNAA        -4.9750     4.0370    -1.7010 hn         1 1AW       0.455000
@<TRIPOS>BOND
     1     1     2 ar  
     2     1     6 ar  
     3     1    27 1   
     4     2     3 ar  
     5     2    28 1   
     6     3     4 ar  
     7     3    29 1   
     8     4     5 ar  
     9     4    30 1   
    10     5     6 ar  
    11     5    31 1   
    12     6     7 1   
    13     7     8 1   
    14     7    32 1   
    15     8     9 2   
    16     8    10 1   
    17    10    11 1   
    18    10    33 1   
    19    11    12 2   
    20    11    19 1   
    21    12    13 1   
    22    12    34 1   
    23    13    14 1   
    24    13    18 2   
    25    14    15 1   
    26    14    16 1   
    27    14    17 1   
    28    15    35 1   
    29    15    36 1   
    30    15    37 1   
    31    16    38 1   
    32    16    39 1   
    33    16    40 1   
    34    17    41 1   
    35    17    42 1   
    36    17    43 1   
    37    18    19 1   
    38    19    20 1   
    39    20    21 ar  
    40    20    22 ar  
    41    21    25 ar  
    42    21    44 1   
    43    22    23 ar  
    44    22    45 1   
    45    23    24 ar  
    46    23    46 1   
    47    24    25 ar  
    48    24    47 1   
    49    25    26 1   
    50    26    48 1   
    51    26    49 1   
@<TRIPOS>SUBSTRUCTURE
     1 1AW         1 TEMP              0 ****  ****    0 ROOT
