@<TRIPOS>MOLECULE
1AW
   49    51     1     0     0
SMALL
bcc


@<TRIPOS>ATOM
      1 CBB          4.9760     0.0920     0.4020 ca         1 1AW      -0.170500
      2 CBA          6.3430     0.3130     0.5150 ca         1 1AW      -0.099500
      3 CAN          6.9160     1.5180     0.1360 ca         1 1AW      -0.155000
      4 CAI          6.0950     2.5190    -0.3680 ca         1 1AW      -0.099500
      5 CAL          4.7320     2.3140    -0.4880 ca         1 1AW      -0.170500
      6 CAX          4.1540     1.0990    -0.1070 ca         1 1AW       0.087600
      7 NAS          2.7700     0.9940    -0.2710 ns         1 1AW      -0.487100
      8 CAU          1.9610    -0.0700     0.0020 c          1 1AW       0.810100
      9 OAE          2.3390    -1.1300     0.4600 o          1 1AW      -0.592100
     10 NAT          0.6440     0.1800    -0.2980 ns         1 1AW      -0.489100
     11 CAZ         -0.3670    -0.7450    -0.1260 cc         1 1AW       0.076300
     12 CAQ         -0.3810    -2.1180    -0.1520 cd         1 1AW      -0.307300
     13 CAY         -1.7420    -2.4630     0.0010 cd         1 1AW       0.344600
     14 CBD         -2.3110    -3.8560     0.0760 c3         1 1AW      -0.072300
     15 CAB         -1.7980    -4.6780    -1.1120 c3         1 1AW      -0.080433
     16 CAC         -1.8360    -4.5020     1.3850 c3         1 1AW      -0.080433
     17 CAA         -3.8380    -3.8310     0.0510 c3         1 1AW      -0.080433
     18 NAR         -2.4950    -1.3910     0.1060 nc         1 1AW      -0.510800
     19 NBC         -1.6530    -0.3430     0.0490 na         1 1AW       0.128300
     20 CAW         -2.1590     0.9730     0.1290 ca         1 1AW       0.056800
     21 CAP         -3.2770     1.3010    -0.6250 ca         1 1AW      -0.187000
     22 CAK         -1.5500     1.9040     0.9630 ca         1 1AW      -0.199000
     23 CAH         -2.0820     3.1870     1.0120 ca         1 1AW      -0.079000
     24 CAJ         -3.1950     3.5340     0.2700 ca         1 1AW      -0.202000
     25 CAV         -3.8170     2.5890    -0.5590 ca         1 1AW       0.168600
     26 NAD         -4.8950     2.9360    -1.3370 nv         1 1AW      -0.826200
     27 HBB          4.5690    -0.8570     0.7100 ha         1 1AW       0.146000
     28 HBA          6.9650    -0.4800     0.9100 ha         1 1AW       0.131500
     29 HAN          7.9820     1.6750     0.2300 ha         1 1AW       0.134000
     30 HAI          6.5150     3.4690    -0.6730 ha         1 1AW       0.131500
     31 HAL          4.1070     3.1060    -0.8840 ha         1 1AW       0.146000
     32 HNAS         2.3370     1.8210    -0.6530 hn         1 1AW       0.313500
     33 HNAT         0.3800     1.0800    -0.6730 hn         1 1AW       0.328500
     34 HAQ          0.4580    -2.7790    -0.2780 ha         1 1AW       0.183000
     35 HAB         -0.7080    -4.7240    -1.1340 hc         1 1AW       0.036700
     36 HABA        -2.1670    -5.7030    -1.0500 hc         1 1AW       0.036700
     37 HABB        -2.1350    -4.2550    -2.0600 hc         1 1AW       0.036700
     38 HAC         -2.2190    -3.9590     2.2510 hc         1 1AW       0.036700
     39 HACA        -2.1880    -5.5330     1.4530 hc         1 1AW       0.036700
     40 HACB        -0.7470    -4.5170     1.4540 hc         1 1AW       0.036700
     41 HAA         -4.2180    -3.3980    -0.8760 hc         1 1AW       0.036700
     42 HAAA        -4.2250    -4.8490     0.1270 hc         1 1AW       0.036700
     43 HAAB        -4.2460    -3.2550     0.8820 hc         1 1AW       0.036700
     44 HAP         -3.7300     0.5550    -1.2650 ha         1 1AW       0.156000
     45 HAK         -0.7050     1.6370     1.5820 ha         1 1AW       0.148000
     46 HAH         -1.6250     3.9250     1.6590 ha         1 1AW       0.134000
     47 HAJ         -3.5940     4.5390     0.3300 ha         1 1AW       0.134000
     48 HNAD        -5.4950     2.1820    -1.6310 hn         1 1AW       0.399800
     49 HNAA        -5.4200     3.7390    -1.0320 hn         1 1AW       0.399800
@<TRIPOS>BOND
     1     1     2 ar  
     2     1     6 ar  
     3     1    27 1   
     4     2     3 ar  
     5     2    28 1   
     6     3     4 ar  
     7     3    29 1   
     8     4     5 ar  
     9     4    30 1   
    10     5     6 ar  
    11     5    31 1   
    12     6     7 1   
    13     7     8 1   
    14     7    32 1   
    15     8     9 2   
    16     8    10 1   
    17    10    11 1   
    18    10    33 1   
    19    11    12 2   
    20    11    19 1   
    21    12    13 1   
    22    12    34 1   
    23    13    14 1   
    24    13    18 2   
    25    14    15 1   
    26    14    16 1   
    27    14    17 1   
    28    15    35 1   
    29    15    36 1   
    30    15    37 1   
    31    16    38 1   
    32    16    39 1   
    33    16    40 1   
    34    17    41 1   
    35    17    42 1   
    36    17    43 1   
    37    18    19 1   
    38    19    20 1   
    39    20    21 ar  
    40    20    22 ar  
    41    21    25 ar  
    42    21    44 1   
    43    22    23 ar  
    44    22    45 1   
    45    23    24 ar  
    46    23    46 1   
    47    24    25 ar  
    48    24    47 1   
    49    25    26 1   
    50    26    48 1   
    51    26    49 1   
@<TRIPOS>SUBSTRUCTURE
     1 1AW         1 TEMP              0 ****  ****    0 ROOT
