@<TRIPOS>MOLECULE
1AX
   25    24     1     0     0
SMALL
bcc


@<TRIPOS>ATOM
      1 OAA         -4.7420    -0.1530     0.3620 oh         1 1AX      -0.577800
      2 CAE         -3.6280     0.6950     0.2300 c3         1 1AX       0.106400
      3 CAJ         -2.3780    -0.1510     0.0440 c3         1 1AX       0.144100
      4 OAC         -2.4520    -0.9770    -1.0940 oh         1 1AX      -0.558800
      5 CAG         -1.1530     0.7500     0.0230 c3         1 1AX       0.101400
      6 OAI          0.0050    -0.0380    -0.0490 os         1 1AX      -0.372600
      7 CAH          1.1780     0.7310    -0.0530 c3         1 1AX       0.101400
      8 CAK          2.3870    -0.1900    -0.1130 c3         1 1AX       0.144100
      9 OAD          2.4190    -1.0980     0.9640 oh         1 1AX      -0.558800
     10 CAF          3.6550     0.6430    -0.2080 c3         1 1AX       0.106400
     11 OAB          4.7560    -0.2130    -0.3860 oh         1 1AX      -0.577800
     12 H1          -5.5250     0.3970     0.4460 ho         1 1AX       0.403500
     13 H2          -3.7340     1.3730    -0.6310 h1         1 1AX       0.016700
     14 H3          -3.4950     1.3310     1.1140 h1         1 1AX       0.016700
     15 H4          -2.2900    -0.8310     0.8980 h1         1 1AX       0.100700
     16 H5          -2.5580    -0.4190    -1.8720 ho         1 1AX       0.393000
     17 H6          -1.2130     1.4400    -0.8350 h1         1 1AX       0.019700
     18 H7          -1.1450     1.3750     0.9280 h1         1 1AX       0.019700
     19 H8           1.1970     1.4120    -0.9160 h1         1 1AX       0.019700
     20 H9           1.2340     1.3620     0.8480 h1         1 1AX       0.019700
     21 H10          2.3090    -0.8060    -1.0160 h1         1 1AX       0.100700
     22 H11          2.4940    -0.5980     1.7840 ho         1 1AX       0.393000
     23 H12          3.5500     1.3480    -1.0430 h1         1 1AX       0.016700
     24 H13          3.7550     1.2490     0.7060 h1         1 1AX       0.016700
     25 H14          5.5510     0.3260    -0.4140 ho         1 1AX       0.403500
@<TRIPOS>BOND
     1     1     2 1   
     2     1    12 1   
     3     2     3 1   
     4     2    13 1   
     5     2    14 1   
     6     3     4 1   
     7     3     5 1   
     8     3    15 1   
     9     4    16 1   
    10     5     6 1   
    11     5    17 1   
    12     5    18 1   
    13     6     7 1   
    14     7     8 1   
    15     7    19 1   
    16     7    20 1   
    17     8     9 1   
    18     8    10 1   
    19     8    21 1   
    20     9    22 1   
    21    10    11 1   
    22    10    23 1   
    23    10    24 1   
    24    11    25 1   
@<TRIPOS>SUBSTRUCTURE
     1 1AX         1 TEMP              0 ****  ****    0 ROOT
