@<TRIPOS>MOLECULE
1AX
   25    24     1     0     0
SMALL
No Charge or Current Charge


@<TRIPOS>ATOM
      1 OAA         -4.8820    -0.1490    -0.0720 oh         1 1AX      -0.640000
      2 CAE         -3.7600     0.7300     0.1140 c3         1 1AX       0.129600
      3 CAJ         -2.4350    -0.0480    -0.0970 c3         1 1AX       0.167300
      4 OAC         -2.5030    -0.7160    -1.3740 oh         1 1AX      -0.681000
      5 CAG         -1.1960     0.8850    -0.0190 c3         1 1AX       0.124600
      6 OAI          0.0020     0.0850    -0.0220 os         1 1AX      -0.419000
      7 CAH          1.2270     0.8420     0.0370 c3         1 1AX       0.124600
      8 CAK          2.4340    -0.1360     0.0380 c3         1 1AX       0.167300
      9 OAD          2.4780    -0.9060     1.2570 oh         1 1AX      -0.681000
     10 CAF          3.7850     0.6120    -0.1110 c3         1 1AX       0.129600
     11 OAB          4.8760    -0.3170     0.0010 oh         1 1AX      -0.640000
     12 H1          -5.6930     0.3680     0.1370 ho         1 1AX       0.442500
     13 H2          -3.8110     1.5660    -0.5970 h1         1 1AX       0.016700
     14 H3          -3.7710     1.1520     1.1270 h1         1 1AX       0.016700
     15 H4          -2.3520    -0.7840     0.7170 h1         1 1AX       0.100700
     16 H5          -3.4560    -0.9560    -1.4670 ho         1 1AX       0.492000
     17 H6          -1.2040     1.5800    -0.8690 h1         1 1AX       0.019700
     18 H7          -1.2500     1.4780     0.9040 h1         1 1AX       0.019700
     19 H8           1.3030     1.5050    -0.8360 h1         1 1AX       0.019700
     20 H9           1.2570     1.4660     0.9400 h1         1 1AX       0.019700
     21 H10          2.3270    -0.8000    -0.8320 h1         1 1AX       0.100700
     22 H11          3.4220    -1.1850     1.3290 ho         1 1AX       0.492000
     23 H12          3.8110     1.1140    -1.0880 h1         1 1AX       0.016700
     24 H13          3.8630     1.3850     0.6650 h1         1 1AX       0.016700
     25 H14          5.7040     0.1870    -0.1670 ho         1 1AX       0.442500
@<TRIPOS>BOND
     1     1     2 1   
     2     1    12 1   
     3     2     3 1   
     4     2    13 1   
     5     2    14 1   
     6     3     4 1   
     7     3     5 1   
     8     3    15 1   
     9     4    16 1   
    10     5     6 1   
    11     5    17 1   
    12     5    18 1   
    13     6     7 1   
    14     7     8 1   
    15     7    19 1   
    16     7    20 1   
    17     8     9 1   
    18     8    10 1   
    19     8    21 1   
    20     9    22 1   
    21    10    11 1   
    22    10    23 1   
    23    10    24 1   
    24    11    25 1   
@<TRIPOS>SUBSTRUCTURE
     1 1AX         1 TEMP              0 ****  ****    0 ROOT
