@<TRIPOS>MOLECULE
1AY
   64    67     1     0     0
SMALL
No Charge or Current Charge


@<TRIPOS>ATOM
      1 C3          -5.5220     0.7870     0.0270 cp         1 1AY       0.294000
      2 C5          -6.7260     1.5020    -0.2310 ca         1 1AY      -0.108000
      3 C6          -7.9660     0.8390    -0.2040 ca         1 1AY      -0.083000
      4 C4          -4.1650     1.4670     0.0050 cp         1 1AY       0.133000
      5 N2          -5.5600    -0.5450     0.3020 nb         1 1AY      -0.622000
      6 C7          -7.9800    -0.5340     0.0830 ca         1 1AY       0.067000
      7 C1          -6.7560    -1.1850     0.3290 ca         1 1AY       0.340900
      8 N25         -4.1270     2.7910    -0.2730 nb         1 1AY      -0.237000
      9 C23         -2.9280     3.4090    -0.2980 ca         1 1AY       0.177300
     10 C24         -2.9320     4.8950    -0.6180 c3         1 1AY      -0.151400
     11 N9          -3.0670     0.7180     0.2640 nb         1 1AY      -0.227000
     12 C10         -1.8670     1.3250     0.2450 ca         1 1AY       0.403900
     13 C21         -1.7400     2.6980    -0.0390 ca         1 1AY      -0.082000
     14 Cl2         -0.1550     3.4910    -0.0730 cl         1 1AY      -0.188000
     15 N11         -0.7490     0.5380     0.5070 nu         1 1AY      -0.910100
     16 C12         -0.6560    -0.9350     0.4710 c3         1 1AY       0.231800
     17 C13          0.8050    -1.3910     0.7890 c3         1 1AY       0.203800
     18 C14          1.0110    -2.8890     0.5510 ca         1 1AY      -0.122300
     19 C26          0.8150    -3.4560    -0.7270 ca         1 1AY      -0.099500
     20 C27          1.0120    -4.8330    -0.9330 ca         1 1AY      -0.108000
     21 C28          1.4080    -5.6550     0.1350 ca         1 1AY      -0.103000
     22 C29          1.6090    -5.0980     1.4090 ca         1 1AY      -0.108000
     23 C30          1.4120    -3.7220     1.6160 ca         1 1AY      -0.099500
     24 N15          1.7980    -0.5940     0.0150 n7         1 1AY      -0.887400
     25 C16          3.2070    -0.7660     0.4150 c3         1 1AY       0.165800
     26 C17          4.1100     0.1450    -0.4380 c3         1 1AY      -0.080400
     27 C18          5.6050     0.0220    -0.0690 c3         1 1AY      -0.073400
     28 C19          6.5180     0.9320    -0.9180 c3         1 1AY      -0.030100
     29 C31          7.9840     0.7900    -0.5340 ca         1 1AY      -0.079300
     30 C36          8.5400     1.6140     0.4640 ca         1 1AY      -0.107500
     31 C35          9.8930     1.4790     0.8230 ca         1 1AY      -0.109000
     32 C34         10.6980     0.5190     0.1860 ca         1 1AY      -0.111000
     33 C33         10.1480    -0.3070    -0.8090 ca         1 1AY      -0.109000
     34 C32          8.7950    -0.1720    -1.1670 ca         1 1AY      -0.107500
     35 H1          -6.6990     2.5660    -0.4520 ha         1 1AY       0.152000
     36 H2          -8.8920     1.3750    -0.3990 ha         1 1AY       0.135000
     37 H3          -6.7310    -2.2500     0.5540 h4         1 1AY       0.035100
     38 H4          -2.4970     5.4730     0.2060 hc         1 1AY       0.060033
     39 H5          -2.3470     5.1020    -1.5210 hc         1 1AY       0.060033
     40 H6          -3.9470     5.2750    -0.7870 hc         1 1AY       0.060033
     41 H7           0.1530     1.0070     0.3840 hn         1 1AY       0.527000
     42 H8          -1.3410    -1.3890     1.2010 h1         1 1AY       0.064200
     43 H9          -0.9420    -1.2960    -0.5260 h1         1 1AY       0.064200
     44 H10          0.9540    -1.1920     1.8610 h1         1 1AY       0.072700
     45 H11          0.5140    -2.8320    -1.5660 ha         1 1AY       0.111000
     46 H12          0.8590    -5.2620    -1.9200 ha         1 1AY       0.114500
     47 H13          1.5610    -6.7200    -0.0250 ha         1 1AY       0.115000
     48 H14          1.9180    -5.7330     2.2370 ha         1 1AY       0.114500
     49 H15          1.5740    -3.3040     2.6080 ha         1 1AY       0.111000
     50 H16          1.7130    -0.8640    -0.9710 hn         1 1AY       0.415000
     51 H18          3.3370    -0.5090     1.4750 h1         1 1AY       0.036200
     52 H19          3.5240    -1.8100     0.2810 h1         1 1AY       0.036200
     53 H20          3.9790    -0.1060    -1.4980 hc         1 1AY       0.044700
     54 H21          3.7920     1.1880    -0.3100 hc         1 1AY       0.044700
     55 H22          5.7370     0.2710     0.9910 hc         1 1AY       0.043700
     56 H23          5.9230    -1.0210    -0.1940 hc         1 1AY       0.043700
     57 H24          6.3820     0.6890    -1.9800 hc         1 1AY       0.046700
     58 H25          6.1970     1.9750    -0.8010 hc         1 1AY       0.046700
     59 H26          7.9240     2.3580     0.9640 ha         1 1AY       0.109500
     60 H27         10.3170     2.1190     1.5940 ha         1 1AY       0.111500
     61 H28         11.7440     0.4150     0.4630 ha         1 1AY       0.112000
     62 H29         10.7690    -1.0520    -1.3020 ha         1 1AY       0.111500
     63 H30          8.3770    -0.8180    -1.9370 ha         1 1AY       0.109500
     64 Cl8         -9.5030    -1.4180     0.1310 cl         1 1AY      -0.183000
@<TRIPOS>BOND
     1     1     2 ar  
     2     1     4 1   
     3     1     5 ar  
     4     2     3 ar  
     5     2    35 1   
     6     3     6 ar  
     7     3    36 1   
     8     4     8 ar  
     9     4    11 ar  
    10     5     7 ar  
    11     6     7 ar  
    12     6    64 1   
    13     7    37 1   
    14     8     9 ar  
    15     9    10 1   
    16     9    13 ar  
    17    10    38 1   
    18    10    39 1   
    19    10    40 1   
    20    11    12 ar  
    21    12    13 ar  
    22    12    15 1   
    23    13    14 1   
    24    15    16 1   
    25    15    41 1   
    26    16    17 1   
    27    16    42 1   
    28    16    43 1   
    29    17    18 1   
    30    17    24 1   
    31    17    44 1   
    32    18    19 ar  
    33    18    23 ar  
    34    19    20 ar  
    35    19    45 1   
    36    20    21 ar  
    37    20    46 1   
    38    21    22 ar  
    39    21    47 1   
    40    22    23 ar  
    41    22    48 1   
    42    23    49 1   
    43    24    25 1   
    44    24    50 1   
    45    25    26 1   
    46    25    51 1   
    47    25    52 1   
    48    26    27 1   
    49    26    53 1   
    50    26    54 1   
    51    27    28 1   
    52    27    55 1   
    53    27    56 1   
    54    28    29 1   
    55    28    57 1   
    56    28    58 1   
    57    29    30 ar  
    58    29    34 ar  
    59    30    31 ar  
    60    30    59 1   
    61    31    32 ar  
    62    31    60 1   
    63    32    33 ar  
    64    32    61 1   
    65    33    34 ar  
    66    33    62 1   
    67    34    63 1   
@<TRIPOS>SUBSTRUCTURE
     1 1AY         1 TEMP              0 ****  ****    0 ROOT
