@<TRIPOS>MOLECULE
1AY
   64    67     1     0     0
SMALL
abcg2


@<TRIPOS>ATOM
      1 C3          -5.3060     0.6830    -0.0050 cp         1 1AY       0.294000
      2 C5          -6.5080     1.3830    -0.0820 ca         1 1AY      -0.108000
      3 C6          -7.6990     0.6810    -0.0680 ca         1 1AY      -0.083000
      4 C4          -4.0070     1.4080    -0.0170 cp         1 1AY       0.133000
      5 N2          -5.2680    -0.6430     0.0820 nb         1 1AY      -0.622000
      6 C7          -7.6400    -0.6990     0.0230 ca         1 1AY       0.067000
      7 C1          -6.4000    -1.3220     0.0960 ca         1 1AY       0.340900
      8 N25         -4.0740     2.7240    -0.1210 nb         1 1AY      -0.237000
      9 C23         -2.9220     3.4030    -0.1330 ca         1 1AY       0.177300
     10 C24         -2.9930     4.8900    -0.2540 c3         1 1AY      -0.151400
     11 N9          -2.9080     0.6810     0.0720 nb         1 1AY      -0.227000
     12 C10         -1.7380     1.3210     0.0690 ca         1 1AY       0.403900
     13 C21         -1.7240     2.7310    -0.0360 ca         1 1AY      -0.082000
     14 CL2         -0.2190     3.5780    -0.0390 cl         1 1AY      -0.188000
     15 N11         -0.6150     0.6090     0.1760 nu         1 1AY      -0.910100
     16 C12         -0.5710    -0.8340     0.1750 c3         1 1AY       0.231800
     17 C13          0.8320    -1.2750     0.5980 c3         1 1AY       0.203800
     18 C14          0.9300    -2.7880     0.5740 ca         1 1AY      -0.122300
     19 C26          0.9790    -3.4820    -0.6330 ca         1 1AY      -0.099500
     20 C27          1.0570    -4.8680    -0.6500 ca         1 1AY      -0.108000
     21 C28          1.0840    -5.5800     0.5430 ca         1 1AY      -0.103000
     22 C29          1.0350    -4.8970     1.7500 ca         1 1AY      -0.108000
     23 C30          0.9590    -3.5100     1.7620 ca         1 1AY      -0.099500
     24 N15          1.8060    -0.5680    -0.2110 n7         1 1AY      -0.887400
     25 C16          3.1880    -0.7520     0.1910 c3         1 1AY       0.165800
     26 C17          4.1060     0.1710    -0.5950 c3         1 1AY      -0.080400
     27 C18          5.5680     0.0160    -0.2000 c3         1 1AY      -0.073400
     28 C19          6.4890     0.9550    -0.9820 c3         1 1AY      -0.030100
     29 C31          7.9290     0.7960    -0.5830 ca         1 1AY      -0.079300
     30 C36          8.4310     1.4540     0.5390 ca         1 1AY      -0.107500
     31 C35          9.7480     1.2780     0.9420 ca         1 1AY      -0.109000
     32 C34         10.5890     0.4360     0.2250 ca         1 1AY      -0.111000
     33 C33         10.1020    -0.2260    -0.8950 ca         1 1AY      -0.109000
     34 C32          8.7830    -0.0450    -1.2930 ca         1 1AY      -0.107500
     35 H1          -6.5100     2.4610    -0.1510 ha         1 1AY       0.152000
     36 H2          -8.6470     1.1980    -0.1280 ha         1 1AY       0.135000
     37 H3          -6.3320    -2.4010     0.1660 h4         1 1AY       0.035100
     38 H4          -2.5920     5.3750     0.6370 hc         1 1AY       0.060033
     39 H5          -2.4110     5.2470    -1.1040 hc         1 1AY       0.060033
     40 H6          -4.0270     5.2020    -0.3820 hc         1 1AY       0.060033
     41 H7           0.2800     1.0540     0.0230 hn         1 1AY       0.527000
     42 H8          -1.3080    -1.2370     0.8690 h1         1 1AY       0.064200
     43 H9          -0.8110    -1.2360    -0.8170 h1         1 1AY       0.064200
     44 H10          0.9820    -0.9460     1.6320 h1         1 1AY       0.072700
     45 H11          0.9620    -2.9430    -1.5740 ha         1 1AY       0.111000
     46 H12          1.0970    -5.3930    -1.5960 ha         1 1AY       0.114500
     47 H13          1.1450    -6.6600     0.5300 ha         1 1AY       0.115000
     48 H14          1.0590    -5.4440     2.6840 ha         1 1AY       0.114500
     49 H15          0.9240    -2.9810     2.7080 ha         1 1AY       0.111000
     50 H16          1.6990    -0.8160    -1.1890 hn         1 1AY       0.415000
     51 H18          3.2630    -0.5190     1.2580 h1         1 1AY       0.036200
     52 H19          3.5280    -1.7920     0.0780 h1         1 1AY       0.036200
     53 H20          3.9950    -0.0330    -1.6650 hc         1 1AY       0.044700
     54 H21          3.7850     1.2060    -0.4400 hc         1 1AY       0.044700
     55 H22          5.6830     0.2110     0.8710 hc         1 1AY       0.043700
     56 H23          5.8880    -1.0180    -0.3610 hc         1 1AY       0.043700
     57 H24          6.3760     0.7620    -2.0520 hc         1 1AY       0.046700
     58 H25          6.1700     1.9880    -0.8140 hc         1 1AY       0.046700
     59 H26          7.7820     2.1150     1.1020 ha         1 1AY       0.109500
     60 H27         10.1190     1.8010     1.8140 ha         1 1AY       0.111500
     61 H28         11.6170     0.2990     0.5340 ha         1 1AY       0.112000
     62 H29         10.7490    -0.8830    -1.4610 ha         1 1AY       0.111500
     63 H30          8.4140    -0.5620    -2.1710 ha         1 1AY       0.109500
     64 CL8         -9.0780    -1.6460     0.0480 cl         1 1AY      -0.183000
@<TRIPOS>BOND
     1     1     2 ar  
     2     1     4 1   
     3     1     5 ar  
     4     2     3 ar  
     5     2    35 1   
     6     3     6 ar  
     7     3    36 1   
     8     4     8 ar  
     9     4    11 ar  
    10     5     7 ar  
    11     6     7 ar  
    12     6    64 1   
    13     7    37 1   
    14     8     9 ar  
    15     9    10 1   
    16     9    13 ar  
    17    10    38 1   
    18    10    39 1   
    19    10    40 1   
    20    11    12 ar  
    21    12    13 ar  
    22    12    15 1   
    23    13    14 1   
    24    15    16 1   
    25    15    41 1   
    26    16    17 1   
    27    16    42 1   
    28    16    43 1   
    29    17    18 1   
    30    17    24 1   
    31    17    44 1   
    32    18    19 ar  
    33    18    23 ar  
    34    19    20 ar  
    35    19    45 1   
    36    20    21 ar  
    37    20    46 1   
    38    21    22 ar  
    39    21    47 1   
    40    22    23 ar  
    41    22    48 1   
    42    23    49 1   
    43    24    25 1   
    44    24    50 1   
    45    25    26 1   
    46    25    51 1   
    47    25    52 1   
    48    26    27 1   
    49    26    53 1   
    50    26    54 1   
    51    27    28 1   
    52    27    55 1   
    53    27    56 1   
    54    28    29 1   
    55    28    57 1   
    56    28    58 1   
    57    29    30 ar  
    58    29    34 ar  
    59    30    31 ar  
    60    30    59 1   
    61    31    32 ar  
    62    31    60 1   
    63    32    33 ar  
    64    32    61 1   
    65    33    34 ar  
    66    33    62 1   
    67    34    63 1   
@<TRIPOS>SUBSTRUCTURE
     1 1AY         1 TEMP              0 ****  ****    0 ROOT
