@<TRIPOS>MOLECULE
1AZ
   47    50     1     0     0
SMALL
abcg2


@<TRIPOS>ATOM
      1 O1           0.0750    -1.0360     2.1940 o          1 1AZ      -0.546000
      2 C5          -0.2550    -0.0670     1.5300 c          1 1AZ       0.638600
      3 N1           0.6140     1.0230     1.3540 n          1 1AZ      -0.373400
      4 C4           1.9200     0.9330     2.0110 c3         1 1AZ       0.148300
      5 C3           2.9280     0.1630     1.1960 ca         1 1AZ      -0.103300
      6 C2           3.5770     0.7730     0.1280 ca         1 1AZ      -0.078000
      7 C1           4.5060     0.0730    -0.6250 ca         1 1AZ       0.110000
      8 CL1          5.2910     0.8610    -1.9420 cl         1 1AZ      -0.175000
      9 C16          3.2340    -1.1590     1.5000 ca         1 1AZ      -0.075000
     10 C17          4.1660    -1.8610     0.7540 ca         1 1AZ      -0.106000
     11 C18          4.8030    -1.2500    -0.3140 ca         1 1AZ       0.125000
     12 CL2          5.9570    -2.1340    -1.2380 cl         1 1AZ      -0.176000
     13 C6          -1.4900     0.1310     0.8670 cc         1 1AZ      -0.360600
     14 N2          -2.6300    -0.6490     0.7740 na         1 1AZ      -0.126500
     15 C7          -2.9290    -1.8310     1.5520 c3         1 1AZ       0.060900
     16 C8          -3.4700     0.0210    -0.0420 cc         1 1AZ       0.686400
     17 N4          -2.9670     1.1790    -0.4590 nd         1 1AZ      -0.751000
     18 C13         -1.7560     1.2400     0.1100 cd         1 1AZ       0.462900
     19 N5          -0.8480     2.2490    -0.0330 n          1 1AZ      -0.357300
     20 C14         -1.1300     3.4190    -0.8480 c3         1 1AZ       0.101300
     21 C15          0.3660     2.1620     0.5950 c          1 1AZ       0.621000
     22 O3           1.1900     3.0520     0.4850 o          1 1AZ      -0.561000
     23 N3          -4.7180    -0.4390    -0.3500 nh         1 1AZ      -0.753300
     24 C9          -5.6510     0.5470    -0.8800 c6         1 1AZ       0.162800
     25 C10         -7.0540    -0.0250    -0.8150 c6         1 1AZ       0.148100
     26 O2          -7.1570    -1.2480    -1.5080 os         1 1AZ      -0.442000
     27 C11         -6.2590    -2.2020    -0.9880 c6         1 1AZ       0.148100
     28 C12         -4.8260    -1.7140    -1.0610 c6         1 1AZ       0.162800
     29 H41C         2.2740     1.9420     2.1980 h1         1 1AZ       0.080200
     30 H42C         1.7790     0.4580     2.9790 h1         1 1AZ       0.080200
     31 H2           3.3670     1.8050    -0.1210 ha         1 1AZ       0.148000
     32 H16          2.7430    -1.6520     2.3280 ha         1 1AZ       0.134000
     33 H17          4.3990    -2.8880     0.9990 ha         1 1AZ       0.132000
     34 H71C        -2.4860    -1.7370     2.5380 h1         1 1AZ       0.065033
     35 H72C        -4.0070    -1.9160     1.6650 h1         1 1AZ       0.065033
     36 H73C        -2.5450    -2.7320     1.0770 h1         1 1AZ       0.065033
     37 H141        -1.1250     4.3220    -0.2420 h1         1 1AZ       0.059367
     38 H142        -0.3970     3.5180    -1.6450 h1         1 1AZ       0.059367
     39 H143        -2.1140     3.2980    -1.2890 h1         1 1AZ       0.059367
     40 H91C        -5.6090     1.4530    -0.2760 h1         1 1AZ       0.059200
     41 H92C        -5.3990     0.8190    -1.9130 h1         1 1AZ       0.059200
     42 H121        -4.5210    -1.5920    -2.1080 h1         1 1AZ       0.059200
     43 H122        -4.1740    -2.4650    -0.6170 h1         1 1AZ       0.059200
     44 H101        -7.3440    -0.1520     0.2380 h1         1 1AZ       0.055950
     45 H102        -7.7550     0.6730    -1.2750 h1         1 1AZ       0.055950
     46 H111        -6.5080    -2.4390     0.0570 h1         1 1AZ       0.055950
     47 H112        -6.3670    -3.1120    -1.5780 h1         1 1AZ       0.055950
@<TRIPOS>BOND
     1     1     2 2   
     2     2     3 1   
     3     2    13 1   
     4     3     4 1   
     5     3    21 1   
     6     4     5 1   
     7     4    29 1   
     8     4    30 1   
     9     5     6 ar  
    10     5     9 ar  
    11     6     7 ar  
    12     6    31 1   
    13     7     8 1   
    14     7    11 ar  
    15     9    10 ar  
    16     9    32 1   
    17    10    11 ar  
    18    10    33 1   
    19    11    12 1   
    20    13    14 1   
    21    13    18 2   
    22    14    15 1   
    23    14    16 1   
    24    15    34 1   
    25    15    35 1   
    26    15    36 1   
    27    16    17 2   
    28    16    23 1   
    29    17    18 1   
    30    18    19 1   
    31    19    20 1   
    32    19    21 1   
    33    20    37 1   
    34    20    38 1   
    35    20    39 1   
    36    21    22 2   
    37    23    24 1   
    38    23    28 1   
    39    24    25 1   
    40    24    40 1   
    41    24    41 1   
    42    25    26 1   
    43    25    44 1   
    44    25    45 1   
    45    26    27 1   
    46    27    28 1   
    47    27    46 1   
    48    27    47 1   
    49    28    42 1   
    50    28    43 1   
@<TRIPOS>SUBSTRUCTURE
     1 1AZ         1 TEMP              0 ****  ****    0 ROOT
