@<TRIPOS>MOLECULE
1AZ
   47    50     1     0     0
SMALL
No Charge or Current Charge


@<TRIPOS>ATOM
      1 O1          -0.0190    -0.9710     2.3210 o          1 1AZ      -0.546000
      2 C5          -0.2480    -0.0140     1.5960 c          1 1AZ       0.638600
      3 N1           0.6710     1.0200     1.3850 n          1 1AZ      -0.373400
      4 C4           1.9930     0.9240     2.0600 c3         1 1AZ       0.148300
      5 C3           3.0360     0.1890     1.2250 ca         1 1AZ      -0.103300
      6 C2           3.8500     0.8970     0.3170 ca         1 1AZ      -0.078000
      7 C1           4.8060     0.2220    -0.4600 ca         1 1AZ       0.110000
      8 Cl1          5.8010     1.1460    -1.5860 cl         1 1AZ      -0.175000
      9 C16          3.1940    -1.2060     1.3500 ca         1 1AZ      -0.075000
     10 C17          4.1510    -1.8840     0.5740 ca         1 1AZ      -0.106000
     11 C18          4.9570    -1.1750    -0.3320 ca         1 1AZ       0.125000
     12 Cl2          6.1470    -2.0560    -1.2910 cl         1 1AZ      -0.176000
     13 C6          -1.5090     0.1430     0.8730 cc         1 1AZ      -0.360600
     14 N2          -2.6560    -0.6310     0.8150 na         1 1AZ      -0.126500
     15 C7          -2.9350    -1.8440     1.6030 c3         1 1AZ       0.060900
     16 C8          -3.5130     0.0090    -0.0650 cc         1 1AZ       0.686400
     17 N4          -2.9910     1.1350    -0.4990 nd         1 1AZ      -0.751000
     18 C13         -1.7460     1.2130     0.0740 cd         1 1AZ       0.462900
     19 N5          -0.8170     2.2080    -0.0920 n          1 1AZ      -0.357300
     20 C14         -1.0860     3.3750    -0.9680 c3         1 1AZ       0.101300
     21 C15          0.4220     2.1290     0.5600 c          1 1AZ       0.621000
     22 O3           1.2590     3.0090     0.4100 o          1 1AZ      -0.561000
     23 N3          -4.7640    -0.4190    -0.4490 nh         1 1AZ      -0.753300
     24 C9          -5.7880     0.5680    -0.9210 c6         1 1AZ       0.162800
     25 C10         -7.2330    -0.0020    -0.8150 c6         1 1AZ       0.148100
     26 O2          -7.3270    -1.2830    -1.4830 os         1 1AZ      -0.442000
     27 C11         -6.4210    -2.2670    -0.9310 c6         1 1AZ       0.148100
     28 C12         -4.9470    -1.7790    -1.0500 c6         1 1AZ       0.162800
     29 H41C         2.3640     1.9290     2.3020 h1         1 1AZ       0.080200
     30 H42C         1.8820     0.4160     3.0280 h1         1 1AZ       0.080200
     31 H2           3.7430     1.9740     0.2100 ha         1 1AZ       0.148000
     32 H16          2.5760    -1.7680     2.0470 ha         1 1AZ       0.134000
     33 H17          4.2670    -2.9600     0.6740 ha         1 1AZ       0.132000
     34 H71C        -2.5150    -1.7380     2.6110 h1         1 1AZ       0.065033
     35 H72C        -4.0170    -1.9950     1.6930 h1         1 1AZ       0.065033
     36 H73C        -2.4830    -2.7140     1.1120 h1         1 1AZ       0.065033
     37 H141        -0.9220     4.3050    -0.4080 h1         1 1AZ       0.059367
     38 H142        -0.4080     3.3530    -1.8300 h1         1 1AZ       0.059367
     39 H143        -2.1200     3.3730    -1.3340 h1         1 1AZ       0.059367
     40 H91C        -5.7330     1.4920    -0.3260 h1         1 1AZ       0.059200
     41 H92C        -5.5880     0.8450    -1.9670 h1         1 1AZ       0.059200
     42 H121        -4.6720    -1.7520    -2.1140 h1         1 1AZ       0.059200
     43 H122        -4.2910    -2.5210    -0.5770 h1         1 1AZ       0.059200
     44 H101        -7.5090    -0.1240     0.2420 h1         1 1AZ       0.055950
     45 H102        -7.9440     0.6980    -1.2750 h1         1 1AZ       0.055950
     46 H111        -6.6730    -2.4420     0.1250 h1         1 1AZ       0.055950
     47 H112        -6.5450    -3.2150    -1.4730 h1         1 1AZ       0.055950
@<TRIPOS>BOND
     1     1     2 2   
     2     2     3 1   
     3     2    13 1   
     4     3     4 1   
     5     3    21 1   
     6     4     5 1   
     7     4    29 1   
     8     4    30 1   
     9     5     6 ar  
    10     5     9 ar  
    11     6     7 ar  
    12     6    31 1   
    13     7     8 1   
    14     7    11 ar  
    15     9    10 ar  
    16     9    32 1   
    17    10    11 ar  
    18    10    33 1   
    19    11    12 1   
    20    13    14 1   
    21    13    18 2   
    22    14    15 1   
    23    14    16 1   
    24    15    34 1   
    25    15    35 1   
    26    15    36 1   
    27    16    17 2   
    28    16    23 1   
    29    17    18 1   
    30    18    19 1   
    31    19    20 1   
    32    19    21 1   
    33    20    37 1   
    34    20    38 1   
    35    20    39 1   
    36    21    22 2   
    37    23    24 1   
    38    23    28 1   
    39    24    25 1   
    40    24    40 1   
    41    24    41 1   
    42    25    26 1   
    43    25    44 1   
    44    25    45 1   
    45    26    27 1   
    46    27    28 1   
    47    27    46 1   
    48    27    47 1   
    49    28    42 1   
    50    28    43 1   
@<TRIPOS>SUBSTRUCTURE
     1 1AZ         1 TEMP              0 ****  ****    0 ROOT
