@<TRIPOS>MOLECULE
1B0
   59    62     1     0     0
SMALL
abcg2


@<TRIPOS>ATOM
      1 O24         21.1300    -4.9680     2.2920 o          1 1B0      -0.609100
      2 C23         20.0270    -4.4200     2.2980 c          1 1B0       0.603100
      3 N4          19.8840    -3.0990     2.5110 ns         1 1B0      -0.487900
      4 C5          21.0120    -2.2340     2.7640 c3         1 1B0       0.044700
      5 C13         21.4780    -2.3380     4.2240 c          1 1B0       0.590100
      6 N15         22.7700    -2.0240     4.4820 n          1 1B0      -0.245400
      7 C17         23.7230    -1.6840     3.4670 ca         1 1B0      -0.057000
      8 C22         24.1150    -0.3570     3.3090 ca         1 1B0      -0.112000
      9 C21         25.0370    -0.0210     2.3250 ca         1 1B0      -0.105000
     10 C20         25.5630    -1.0060     1.4940 ca         1 1B0      -0.112000
     11 C19         25.1790    -2.3320     1.6630 ca         1 1B0      -0.105000
     12 C18         24.2670    -2.6750     2.6560 ca         1 1B0      -0.112000
     13 C16         23.2050    -1.9860     5.8820 c3         1 1B0       0.098300
     14 O14         20.6930    -2.6400     5.1210 o          1 1B0      -0.599100
     15 C6          20.6450    -0.7770     2.4300 c3         1 1B0      -0.037100
     16 C7          20.4360    -0.5780     0.9520 ca         1 1B0      -0.083300
     17 C12         21.5280    -0.6150     0.0820 ca         1 1B0      -0.105500
     18 C11         21.3490    -0.4570    -1.2870 ca         1 1B0      -0.107000
     19 C10         20.0720    -0.2590    -1.8070 ca         1 1B0      -0.110000
     20 C9          18.9800    -0.2210    -0.9490 ca         1 1B0      -0.107000
     21 C8          19.1620    -0.3800     0.4220 ca         1 1B0      -0.105500
     22 C25         18.7370    -5.1930     2.0510 c3         1 1B0      -0.067200
     23 C1          18.7700    -5.9420     0.7580 cc         1 1B0      -0.135400
     24 C26         18.8170    -5.3410    -0.5490 ca         1 1B0      -0.087800
     25 C31         18.8410    -4.0200    -1.0120 ca         1 1B0      -0.061000
     26 C30         18.8860    -3.7890    -2.3800 ca         1 1B0      -0.141000
     27 C29         18.9100    -4.8540    -3.2960 ca         1 1B0      -0.094000
     28 C28         18.8920    -6.1740    -2.8650 ca         1 1B0      -0.130000
     29 C27         18.8480    -6.4030    -1.4920 ca         1 1B0      -0.038200
     30 N3          18.8260    -7.5770    -0.7780 na         1 1B0      -0.235700
     31 C2          18.7820    -7.3060     0.5770 cd         1 1B0      -0.030300
     32 C32         18.7590    -8.4190     1.5640 c3         1 1B0      -0.039900
     33 H4          18.9550    -2.7130     2.5780 hn         1 1B0       0.319500
     34 H251        18.6200    -5.8830     2.8890 hc         1 1B0       0.060200
     35 H252        17.8860    -4.5080     2.0770 hc         1 1B0       0.060200
     36 H5          21.8170    -2.5540     2.1100 h1         1 1B0       0.094700
     37 H61C        19.7480    -0.5010     2.9870 hc         1 1B0       0.061200
     38 H62C        21.4520    -0.1320     2.7770 hc         1 1B0       0.061200
     39 H161        24.2630    -1.7430     5.9050 h1         1 1B0       0.046033
     40 H162        22.6470    -1.2330     6.4400 h1         1 1B0       0.046033
     41 H163        23.0470    -2.9570     6.3530 h1         1 1B0       0.046033
     42 H22         23.6900     0.4040     3.9500 ha         1 1B0       0.132000
     43 H18         23.9620    -3.7030     2.7960 ha         1 1B0       0.132000
     44 H21         25.3340     1.0120     2.1990 ha         1 1B0       0.119500
     45 H20         26.2730    -0.7410     0.7210 ha         1 1B0       0.117000
     46 H19         25.5900    -3.1040     1.0250 ha         1 1B0       0.119500
     47 H12         22.5240    -0.7680     0.4820 ha         1 1B0       0.112500
     48 H8          18.3070    -0.3530     1.0870 ha         1 1B0       0.112500
     49 H11         22.2060    -0.4870    -1.9490 ha         1 1B0       0.113500
     50 H10         19.9320    -0.1400    -2.8740 ha         1 1B0       0.113000
     51 H9          17.9830    -0.0730    -1.3460 ha         1 1B0       0.113500
     52 H31         18.8300    -3.1870    -0.3200 ha         1 1B0       0.116000
     53 H30         18.9080    -2.7710    -2.7470 ha         1 1B0       0.109000
     54 H29         18.9460    -4.6420    -4.3580 ha         1 1B0       0.108000
     55 H28         18.9130    -6.9960    -3.5690 ha         1 1B0       0.111000
     56 H3          18.8310    -8.5020    -1.1760 hn         1 1B0       0.347000
     57 H321        17.9080    -9.0820     1.3850 hc         1 1B0       0.051033
     58 H322        19.6660    -9.0240     1.4940 hc         1 1B0       0.051033
     59 H323        18.6850    -8.0360     2.5800 hc         1 1B0       0.051033
@<TRIPOS>BOND
     1     1     2 2   
     2     2     3 1   
     3     2    22 1   
     4     3     4 1   
     5     3    33 1   
     6     4     5 1   
     7     4    15 1   
     8     4    36 1   
     9     5     6 1   
    10     5    14 2   
    11     6     7 1   
    12     6    13 1   
    13     7     8 ar  
    14     7    12 ar  
    15     8     9 ar  
    16     8    42 1   
    17     9    10 ar  
    18     9    44 1   
    19    10    11 ar  
    20    10    45 1   
    21    11    12 ar  
    22    11    46 1   
    23    12    43 1   
    24    13    39 1   
    25    13    40 1   
    26    13    41 1   
    27    15    16 1   
    28    15    37 1   
    29    15    38 1   
    30    16    17 ar  
    31    16    21 ar  
    32    17    18 ar  
    33    17    47 1   
    34    18    19 ar  
    35    18    49 1   
    36    19    20 ar  
    37    19    50 1   
    38    20    21 ar  
    39    20    51 1   
    40    21    48 1   
    41    22    23 1   
    42    22    34 1   
    43    22    35 1   
    44    23    24 1   
    45    23    31 2   
    46    24    25 ar  
    47    24    29 ar  
    48    25    26 ar  
    49    25    52 1   
    50    26    27 ar  
    51    26    53 1   
    52    27    28 ar  
    53    27    54 1   
    54    28    29 ar  
    55    28    55 1   
    56    29    30 1   
    57    30    31 1   
    58    30    56 1   
    59    31    32 1   
    60    32    57 1   
    61    32    58 1   
    62    32    59 1   
@<TRIPOS>SUBSTRUCTURE
     1 1B0         1 TEMP              0 ****  ****    0 ROOT
