@<TRIPOS>MOLECULE
1B0
   59    62     1     0     0
SMALL
No Charge or Current Charge


@<TRIPOS>ATOM
      1 O24         21.4440    -5.3790     1.8010 o          1 1B0      -0.609100
      2 C23         20.3490    -4.8950     2.0580 c          1 1B0       0.603100
      3 N4          20.2090    -3.6360     2.6040 ns         1 1B0      -0.487900
      4 C5          21.3150    -2.6730     2.8260 c3         1 1B0       0.044700
      5 C13         21.1440    -1.9360     4.1970 c          1 1B0       0.590100
      6 N15         22.1680    -1.0580     4.6560 n          1 1B0      -0.245400
      7 C17         23.5240    -1.0360     4.1690 ca         1 1B0      -0.057000
      8 C22         24.0450     0.1630     3.6390 ca         1 1B0      -0.112000
      9 C21         25.3010     0.1830     3.0080 ca         1 1B0      -0.105000
     10 C20         26.0340    -1.0050     2.8650 ca         1 1B0      -0.112000
     11 C19         25.5040    -2.2140     3.3430 ca         1 1B0      -0.105000
     12 C18         24.2480    -2.2320     3.9730 ca         1 1B0      -0.112000
     13 C16         21.8100    -0.0750     5.7040 c3         1 1B0       0.098300
     14 O14         20.0970    -2.0480     4.8340 o          1 1B0      -0.599100
     15 C6          21.4190    -1.6770     1.6380 c3         1 1B0      -0.037100
     16 C7          21.6330    -2.3640     0.2940 ca         1 1B0      -0.083300
     17 C12         22.9020    -2.8740    -0.0420 ca         1 1B0      -0.105500
     18 C11         23.1020    -3.5200    -1.2750 ca         1 1B0      -0.107000
     19 C10         22.0350    -3.6570    -2.1790 ca         1 1B0      -0.110000
     20 C9          20.7690    -3.1440    -1.8510 ca         1 1B0      -0.107000
     21 C8          20.5680    -2.5000    -0.6190 ca         1 1B0      -0.105500
     22 C25         19.0340    -5.6360     1.7880 c3         1 1B0      -0.067200
     23 C1          18.5790    -5.5110     0.3530 cc         1 1B0      -0.135400
     24 C26         17.6910    -4.5130    -0.1780 ca         1 1B0      -0.087800
     25 C31         17.0280    -3.4520     0.4570 ca         1 1B0      -0.061000
     26 C30         16.2260    -2.6050    -0.3370 ca         1 1B0      -0.141000
     27 C29         16.1040    -2.8320    -1.7280 ca         1 1B0      -0.094000
     28 C28         16.7850    -3.9080    -2.3340 ca         1 1B0      -0.130000
     29 C27         17.5740    -4.7340    -1.5220 ca         1 1B0      -0.038200
     30 N3          18.3310    -5.8230    -1.9070 na         1 1B0      -0.235700
     31 C2          18.9640    -6.2940    -0.7340 cd         1 1B0      -0.030300
     32 C32         19.9150    -7.4610    -0.7460 c3         1 1B0      -0.039900
     33 H4          19.2660    -3.3370     2.8230 hn         1 1B0       0.319500
     34 H251        19.1750    -6.6960     2.0260 hc         1 1B0       0.060200
     35 H252        18.2470    -5.2250     2.4310 hc         1 1B0       0.060200
     36 H5          22.2450    -3.2450     2.8730 h1         1 1B0       0.094700
     37 H61C        20.5090    -1.0650     1.6100 hc         1 1B0       0.061200
     38 H62C        22.2410    -0.9760     1.8110 hc         1 1B0       0.061200
     39 H161        22.6960     0.4930     6.0160 h1         1 1B0       0.046033
     40 H162        21.0570     0.6210     5.3160 h1         1 1B0       0.046033
     41 H163        21.4060    -0.5950     6.5820 h1         1 1B0       0.046033
     42 H22         23.4720     1.0860     3.7070 ha         1 1B0       0.132000
     43 H18         23.8560    -3.1770     4.3430 ha         1 1B0       0.132000
     44 H21         25.6980     1.1170     2.6160 ha         1 1B0       0.119500
     45 H20         27.0050    -0.9920     2.3740 ha         1 1B0       0.117000
     46 H19         26.0640    -3.1390     3.2220 ha         1 1B0       0.119500
     47 H12         23.7310    -2.7750     0.6540 ha         1 1B0       0.112500
     48 H8          19.5820    -2.1140    -0.3720 ha         1 1B0       0.112500
     49 H11         24.0830    -3.9160    -1.5270 ha         1 1B0       0.113500
     50 H10         22.1890    -4.1590    -3.1320 ha         1 1B0       0.113000
     51 H9          19.9420    -3.2500    -2.5490 ha         1 1B0       0.113500
     52 H31         17.1280    -3.2800     1.5250 ha         1 1B0       0.116000
     53 H30         15.6990    -1.7720     0.1240 ha         1 1B0       0.109000
     54 H29         15.4850    -2.1730    -2.3320 ha         1 1B0       0.108000
     55 H28         16.7010    -4.0890    -3.4030 ha         1 1B0       0.111000
     56 H3          18.4270    -6.2000    -2.8430 hn         1 1B0       0.347000
     57 H321        19.6220    -8.2150    -0.0060 hc         1 1B0       0.051033
     58 H322        19.9390    -7.9510    -1.7270 hc         1 1B0       0.051033
     59 H323        20.9340    -7.1360    -0.5110 hc         1 1B0       0.051033
@<TRIPOS>BOND
     1     1     2 2   
     2     2     3 1   
     3     2    22 1   
     4     3     4 1   
     5     3    33 1   
     6     4     5 1   
     7     4    15 1   
     8     4    36 1   
     9     5     6 1   
    10     5    14 2   
    11     6     7 1   
    12     6    13 1   
    13     7     8 ar  
    14     7    12 ar  
    15     8     9 ar  
    16     8    42 1   
    17     9    10 ar  
    18     9    44 1   
    19    10    11 ar  
    20    10    45 1   
    21    11    12 ar  
    22    11    46 1   
    23    12    43 1   
    24    13    39 1   
    25    13    40 1   
    26    13    41 1   
    27    15    16 1   
    28    15    37 1   
    29    15    38 1   
    30    16    17 ar  
    31    16    21 ar  
    32    17    18 ar  
    33    17    47 1   
    34    18    19 ar  
    35    18    49 1   
    36    19    20 ar  
    37    19    50 1   
    38    20    21 ar  
    39    20    51 1   
    40    21    48 1   
    41    22    23 1   
    42    22    34 1   
    43    22    35 1   
    44    23    24 1   
    45    23    31 2   
    46    24    25 ar  
    47    24    29 ar  
    48    25    26 ar  
    49    25    52 1   
    50    26    27 ar  
    51    26    53 1   
    52    27    28 ar  
    53    27    54 1   
    54    28    29 ar  
    55    28    55 1   
    56    29    30 1   
    57    30    31 1   
    58    30    56 1   
    59    31    32 1   
    60    32    57 1   
    61    32    58 1   
    62    32    59 1   
@<TRIPOS>SUBSTRUCTURE
     1 1B0         1 TEMP              0 ****  ****    0 ROOT
