@<TRIPOS>MOLECULE
1B1
   45    48     1     0     0
SMALL
abcg2


@<TRIPOS>ATOM
      1 C1          -2.8430     0.2560    -0.2660 c5         1 1B1       0.350700
      2 N1          -2.7560    -0.9930     0.4530 n2         1 1B1      -0.666900
      3 C2          -3.5510    -0.8740     1.4520 ce         1 1B1       0.528900
      4 C4          -3.3990     0.0590    -1.6720 cx         1 1B1      -0.102700
      5 C5          -1.4810     0.9210    -0.3800 ca         1 1B1      -0.059300
      6 C6          -0.3310     0.1440    -0.4350 ca         1 1B1      -0.071000
      7 C7           0.9260     0.7240    -0.6050 cp         1 1B1      -0.047000
      8 C8           1.0220     2.1110    -0.7120 ca         1 1B1      -0.094000
      9 C9          -0.1220     2.8910    -0.6570 ca         1 1B1      -0.120000
     10 C10         -1.3690     2.3030    -0.4970 ca         1 1B1      -0.083000
     11 N3          -3.8290    -1.8100     2.3720 nv         1 1B1      -1.035200
     12 C13         -3.0410    -1.1530    -2.4640 cx         1 1B1      -0.121900
     13 C12         -4.4420    -0.9720    -1.9560 cx         1 1B1      -0.121900
     14 C14          2.1340    -0.1190    -0.6710 cp         1 1B1      -0.079000
     15 C15          3.3340     0.2760    -0.0920 ca         1 1B1      -0.054000
     16 C16          4.4520    -0.5500    -0.1850 ca         1 1B1      -0.015000
     17 C17          4.3090    -1.7630    -0.8640 ca         1 1B1       0.352900
     18 C19          2.1200    -1.3500    -1.3290 ca         1 1B1       0.348900
     19 C21          5.7000    -0.1850     0.3950 cg         1 1B1      -0.131000
     20 N17         -3.7650     1.1310     0.4510 n2         1 1B1      -0.540900
     21 N5           3.1730    -2.1490    -1.4210 nb         1 1B1      -0.666000
     22 C18         -4.1930     0.4690     1.4460 ce         1 1B1       0.298000
     23 C22          6.7610     0.1190     0.8790 c1         1 1B1      -0.109100
     24 C23          8.0410     0.4900     1.4570 c3         1 1B1      -0.008000
     25 H4          -3.4780     0.9900    -2.2250 hc         1 1B1       0.090700
     26 H31N        -3.2690    -2.6460     2.4080 hn         1 1B1       0.489000
     27 H32N        -4.3000    -1.5570     3.2230 hn         1 1B1       0.489000
     28 H121        -4.7680    -1.6120    -1.1460 hc         1 1B1       0.074950
     29 H122        -5.2200    -0.7180    -2.6640 hc         1 1B1       0.074950
     30 H131        -2.8540    -1.0310    -3.5240 hc         1 1B1       0.074950
     31 H132        -2.4300    -1.9050    -1.9810 hc         1 1B1       0.074950
     32 H6          -0.4180    -0.9280    -0.3210 ha         1 1B1       0.135000
     33 H10         -2.2530     2.9240    -0.4580 ha         1 1B1       0.130000
     34 H8           1.9850     2.5820    -0.8610 ha         1 1B1       0.114000
     35 H9          -0.0420     3.9670    -0.7460 ha         1 1B1       0.114000
     36 H111        -4.7240     0.9570     3.4490 hc         1 1B1       0.056700
     37 H112        -5.5260     1.9430     2.2190 hc         1 1B1       0.056700
     38 H113        -6.0330     0.2700     2.5010 hc         1 1B1       0.056700
     39 H15          3.4040     1.2160     0.4420 ha         1 1B1       0.126000
     40 H19          1.2140    -1.6930    -1.8180 h4         1 1B1       0.026100
     41 H17          5.1550    -2.4350    -0.9530 h4         1 1B1       0.025100
     42 H231         8.7150    -0.3650     1.4930 hc         1 1B1       0.054033
     43 H232         8.5210     1.2720     0.8670 hc         1 1B1       0.054033
     44 H233         7.9180     0.8660     2.4730 hc         1 1B1       0.054033
     45 C11         -5.1740     0.9420     2.4540 c3         1 1B1      -0.122400
@<TRIPOS>BOND
     1     1     2 1   
     2     1     4 1   
     3     1     5 1   
     4     1    20 1   
     5     2     3 2   
     6     3    11 1   
     7     3    22 1   
     8     4    12 1   
     9     4    13 1   
    10     4    25 1   
    11     5     6 ar  
    12     5    10 ar  
    13     6     7 ar  
    14     6    32 1   
    15     7     8 ar  
    16     7    14 1   
    17     8     9 ar  
    18     8    34 1   
    19     9    10 ar  
    20     9    35 1   
    21    10    33 1   
    22    11    26 1   
    23    11    27 1   
    24    12    13 1   
    25    12    30 1   
    26    12    31 1   
    27    13    28 1   
    28    13    29 1   
    29    14    15 ar  
    30    14    18 ar  
    31    15    16 ar  
    32    15    39 1   
    33    16    17 ar  
    34    16    19 1   
    35    17    21 ar  
    36    17    41 1   
    37    18    21 ar  
    38    18    40 1   
    39    19    23 3   
    40    20    22 2   
    41    22    45 1   
    42    23    24 1   
    43    24    42 1   
    44    24    43 1   
    45    24    44 1   
    46    36    45 1   
    47    37    45 1   
    48    38    45 1   
@<TRIPOS>SUBSTRUCTURE
     1 1B1         1 TEMP              0 ****  ****    0 ROOT
