@<TRIPOS>MOLECULE
1B1
   45    48     1     0     0
SMALL
No Charge or Current Charge


@<TRIPOS>ATOM
      1 C1          -2.9150     0.2740    -0.2080 c5         1 1B1       0.350700
      2 N1          -2.8900    -1.0350     0.5320 n2         1 1B1      -0.666900
      3 C2          -3.7170    -0.8690     1.4820 ce         1 1B1       0.528900
      4 C4          -3.3020     0.1570    -1.7200 cx         1 1B1      -0.102700
      5 C5          -1.5190     0.9250    -0.3320 ca         1 1B1      -0.059300
      6 C6          -0.3550     0.1280    -0.4300 ca         1 1B1      -0.071000
      7 C7           0.9390     0.6940    -0.5570 cp         1 1B1      -0.047000
      8 C8           1.0440     2.1050    -0.5880 ca         1 1B1      -0.094000
      9 C9          -0.0980     2.9130    -0.5010 ca         1 1B1      -0.120000
     10 C10         -1.3690     2.3300    -0.3770 ca         1 1B1      -0.083000
     11 N3          -3.9480    -1.8310     2.4380 nv         1 1B1      -1.035200
     12 C13         -2.9030    -1.1180    -2.4420 cx         1 1B1      -0.121900
     13 C12         -4.3530    -0.8800    -2.0720 cx         1 1B1      -0.121900
     14 C14          2.1560    -0.1740    -0.6620 cp         1 1B1      -0.079000
     15 C15          3.4010     0.2270    -0.1170 ca         1 1B1      -0.054000
     16 C16          4.5150    -0.6210    -0.2410 ca         1 1B1      -0.015000
     17 C17          4.3580    -1.8520    -0.9100 ca         1 1B1       0.352900
     18 C19          2.1140    -1.4370    -1.3130 ca         1 1B1       0.348900
     19 C21          5.7860    -0.2380     0.3060 cg         1 1B1      -0.131000
     20 N17         -3.9210     1.1560     0.4610 n2         1 1B1      -0.540900
     21 N5           3.1810    -2.2620    -1.4410 nb         1 1B1      -0.666000
     22 C18         -4.3530     0.4560     1.4530 ce         1 1B1       0.298000
     23 C22          6.8570     0.0940     0.7720 c1         1 1B1      -0.109100
     24 C23          8.1320     0.5350     1.3480 c3         1 1B1      -0.008000
     25 H4          -3.3120     1.0730    -2.3070 hc         1 1B1       0.090700
     26 H31N        -3.2680    -2.5840     2.4610 hn         1 1B1       0.489000
     27 H32N        -4.3050    -1.5260     3.3380 hn         1 1B1       0.489000
     28 H121        -4.7840    -1.4900    -1.2830 hc         1 1B1       0.074950
     29 H122        -5.0450    -0.6400    -2.8760 hc         1 1B1       0.074950
     30 H131        -2.6300    -1.0340    -3.4910 hc         1 1B1       0.074950
     31 H132        -2.3610    -1.8900    -1.9020 hc         1 1B1       0.074950
     32 H6          -0.4540    -0.9530    -0.3970 ha         1 1B1       0.135000
     33 H10         -2.2400     2.9800    -0.3230 ha         1 1B1       0.130000
     34 H8           2.0160     2.5800    -0.7000 ha         1 1B1       0.114000
     35 H9          -0.0000     3.9960    -0.5360 ha         1 1B1       0.114000
     36 H111        -5.0480     1.7700     3.0270 hc         1 1B1       0.056700
     37 H112        -6.3210     1.2210     1.9270 hc         1 1B1       0.056700
     38 H113        -5.6850     0.1250     3.1560 hc         1 1B1       0.056700
     39 H15          3.4980     1.1750     0.4060 ha         1 1B1       0.126000
     40 H19          1.1890    -1.7940    -1.7640 h4         1 1B1       0.026100
     41 H17          5.2000    -2.5340    -1.0240 h4         1 1B1       0.025100
     42 H231         8.8370    -0.3030     1.3990 hc         1 1B1       0.054033
     43 H232         8.5740     1.3270     0.7330 hc         1 1B1       0.054033
     44 H233         7.9780     0.9240     2.3610 hc         1 1B1       0.054033
     45 C11         -5.4060     0.9120     2.4470 c3         1 1B1      -0.122400
@<TRIPOS>BOND
     1     1     2 1   
     2     1     4 1   
     3     1     5 1   
     4     1    20 1   
     5     2     3 2   
     6     3    11 1   
     7     3    22 1   
     8     4    12 1   
     9     4    13 1   
    10     4    25 1   
    11     5     6 ar  
    12     5    10 ar  
    13     6     7 ar  
    14     6    32 1   
    15     7     8 ar  
    16     7    14 1   
    17     8     9 ar  
    18     8    34 1   
    19     9    10 ar  
    20     9    35 1   
    21    10    33 1   
    22    11    26 1   
    23    11    27 1   
    24    12    13 1   
    25    12    30 1   
    26    12    31 1   
    27    13    28 1   
    28    13    29 1   
    29    14    15 ar  
    30    14    18 ar  
    31    15    16 ar  
    32    15    39 1   
    33    16    17 ar  
    34    16    19 1   
    35    17    21 ar  
    36    17    41 1   
    37    18    21 ar  
    38    18    40 1   
    39    19    23 3   
    40    20    22 2   
    41    22    45 1   
    42    23    24 1   
    43    24    42 1   
    44    24    43 1   
    45    24    44 1   
    46    36    45 1   
    47    37    45 1   
    48    38    45 1   
@<TRIPOS>SUBSTRUCTURE
     1 1B1         1 TEMP              0 ****  ****    0 ROOT
