@<TRIPOS>MOLECULE
1B2
   44    46     1     0     0
SMALL
abcg2


@<TRIPOS>ATOM
      1 O8           1.6840    -1.3020    -0.1910 o          1 1B2      -0.534100
      2 C4           2.7140    -0.8300     0.2270 c          1 1B2       0.651100
      3 C3           3.7580    -1.6120     1.0070 c3         1 1B2       0.057500
      4 C2           5.0010    -1.8080     0.1020 c3         1 1B2       0.132300
      5 C1           6.1010    -2.5690     0.8230 c3         1 1B2      -0.133100
      6 O6           4.6420    -2.4120    -1.1210 oh         1 1B2      -0.639000
      7 N7           3.1470    -2.8140     1.5210 n8         1 1B2      -0.996200
      8 N5           3.0520     0.4860     0.0090 ns         1 1B2      -0.588300
      9 S9           2.1150     1.5610    -0.8740 sy         1 1B2       1.182300
     10 O10          2.8630     2.8020    -0.8150 o          1 1B2      -0.526500
     11 O11          1.7920     0.9640    -2.1520 o          1 1B2      -0.526500
     12 C12          0.6410     1.7270     0.0840 ca         1 1B2      -0.293500
     13 C13          0.6400     2.6130     1.1530 ca         1 1B2      -0.022000
     14 C14         -0.5180     2.7270     1.9050 ca         1 1B2      -0.132000
     15 C15         -1.6360     1.9670     1.5940 ca         1 1B2      -0.049000
     16 C16         -1.6340     1.0820     0.5150 cp         1 1B2      -0.042000
     17 C17         -0.4730     0.9730    -0.2480 ca         1 1B2       0.016000
     18 C18         -2.8220     0.2700     0.1860 cp         1 1B2      -0.061000
     19 C19         -4.0870     0.7830     0.3350 ca         1 1B2      -0.041000
     20 C20         -5.1880    -0.0320     0.0070 ca         1 1B2      -0.149000
     21 C26         -6.5720     0.1290     0.0210 cc         1 1B2      -0.197100
     22 N25         -7.0660    -1.0310    -0.4140 na         1 1B2       0.016500
     23 N24         -6.1670    -1.9550    -0.7210 nc         1 1B2      -0.282400
     24 C21         -5.0000    -1.3590    -0.4700 ca         1 1B2      -0.064000
     25 C22         -3.6930    -1.8770    -0.6160 ca         1 1B2      -0.080000
     26 C23         -2.6440    -1.0670    -0.2910 ca         1 1B2      -0.088000
     27 H1           4.0720    -1.0040     1.8620 h1         1 1B2       0.076700
     28 H2           5.3880    -0.8200    -0.1610 h1         1 1B2       0.080700
     29 H3           6.9900    -2.6360     0.1960 hc         1 1B2       0.046700
     30 H4           6.3790    -2.0640     1.7480 hc         1 1B2       0.046700
     31 H5           5.7930    -3.5860     1.0750 hc         1 1B2       0.046700
     32 H6           4.4650    -3.3460    -0.9670 ho         1 1B2       0.441000
     33 H7           2.9150    -3.4640     0.7800 hn         1 1B2       0.412500
     34 H8           3.7820    -3.2880     2.1490 hn         1 1B2       0.412500
     35 H10          3.8630     0.8920     0.4610 hn         1 1B2       0.340500
     36 H11          1.5120     3.2030     1.4010 ha         1 1B2       0.130000
     37 H12         -0.5450     3.4050     2.7460 ha         1 1B2       0.117000
     38 H13         -2.5190     2.0520     2.2140 ha         1 1B2       0.117000
     39 H14         -0.4470     0.3160    -1.1060 ha         1 1B2       0.152000
     40 H15         -4.2420     1.8000     0.6740 ha         1 1B2       0.114000
     41 H16         -7.2050     0.9530     0.3010 h4         1 1B2       0.227000
     42 H17         -8.0460    -1.2480    -0.5180 hn         1 1B2       0.370000
     43 H18         -3.5290    -2.8890    -0.9640 ha         1 1B2       0.130000
     44 H19         -1.6380    -1.4590    -0.3750 ha         1 1B2       0.127000
@<TRIPOS>BOND
     1     1     2 2   
     2     2     3 1   
     3     2     8 1   
     4     3     4 1   
     5     3     7 1   
     6     3    27 1   
     7     4     5 1   
     8     4     6 1   
     9     4    28 1   
    10     5    29 1   
    11     5    30 1   
    12     5    31 1   
    13     6    32 1   
    14     7    33 1   
    15     7    34 1   
    16     8     9 1   
    17     8    35 1   
    18     9    10 2   
    19     9    11 2   
    20     9    12 1   
    21    12    13 ar  
    22    12    17 ar  
    23    13    14 ar  
    24    13    36 1   
    25    14    15 ar  
    26    14    37 1   
    27    15    16 ar  
    28    15    38 1   
    29    16    17 ar  
    30    16    18 1   
    31    17    39 1   
    32    18    19 ar  
    33    18    26 ar  
    34    19    20 ar  
    35    19    40 1   
    36    20    21 2   
    37    20    24 ar  
    38    21    22 1   
    39    21    41 1   
    40    22    23 1   
    41    22    42 1   
    42    23    24 2   
    43    24    25 ar  
    44    25    26 ar  
    45    25    43 1   
    46    26    44 1   
@<TRIPOS>SUBSTRUCTURE
     1 1B2         1 TEMP              0 ****  ****    0 ROOT
