@<TRIPOS>MOLECULE
1B2
   44    46     1     0     0
SMALL
No Charge or Current Charge


@<TRIPOS>ATOM
      1 O8           1.8470    -1.1390    -0.3420 o          1 1B2      -0.534100
      2 C4           2.8690    -0.6330     0.1040 c          1 1B2       0.651100
      3 C3           3.9620    -1.4610     0.8750 c3         1 1B2       0.057500
      4 C2           4.8210    -2.2920    -0.1330 c3         1 1B2       0.132300
      5 C1           6.1920    -2.7120     0.4400 c3         1 1B2      -0.133100
      6 O6           4.1230    -3.4760    -0.5470 oh         1 1B2      -0.639000
      7 N7           3.4570    -2.2960     2.0360 n8         1 1B2      -0.996200
      8 N5           3.1200     0.7040     0.0180 ns         1 1B2      -0.588300
      9 S9           2.1680     1.8740    -0.7010 sy         1 1B2       1.182300
     10 O10          2.8810     3.1350    -0.4740 o          1 1B2      -0.526500
     11 O11          1.8760     1.3920    -2.0560 o          1 1B2      -0.526500
     12 C12          0.6390     1.8850     0.2550 ca         1 1B2      -0.293500
     13 C13          0.5390     2.6700     1.4210 ca         1 1B2      -0.022000
     14 C14         -0.6530     2.6700     2.1620 ca         1 1B2      -0.132000
     15 C15         -1.7440     1.8880     1.7480 ca         1 1B2      -0.049000
     16 C16         -1.6690     1.0850     0.5830 cp         1 1B2      -0.042000
     17 C17         -0.4590     1.0990    -0.1560 ca         1 1B2       0.016000
     18 C18         -2.8300     0.2450     0.1490 cp         1 1B2      -0.061000
     19 C19         -4.1660     0.6980     0.3210 ca         1 1B2      -0.041000
     20 C20         -5.2170    -0.1250    -0.1030 ca         1 1B2      -0.149000
     21 C26         -6.6230     0.0720    -0.0600 cc         1 1B2      -0.197100
     22 N25         -7.1840    -1.0740    -0.6200 na         1 1B2       0.016500
     23 N24         -6.2110    -1.9990    -1.0240 nc         1 1B2      -0.282400
     24 C21         -5.0220    -1.3540    -0.6780 ca         1 1B2      -0.064000
     25 C22         -3.7180    -1.8360    -0.8620 ca         1 1B2      -0.080000
     26 C23         -2.6300    -1.0360    -0.4490 ca         1 1B2      -0.088000
     27 H1           4.6380    -0.7110     1.3100 h1         1 1B2       0.076700
     28 H2           5.0180    -1.6530    -1.0080 h1         1 1B2       0.080700
     29 H3           6.7760    -3.2510    -0.3150 hc         1 1B2       0.046700
     30 H4           6.7690    -1.8280     0.7400 hc         1 1B2       0.046700
     31 H5           6.0820    -3.3610     1.3170 hc         1 1B2       0.046700
     32 H6           4.3610    -4.1890     0.0830 ho         1 1B2       0.441000
     33 H7           2.8030    -3.0010     1.6720 hn         1 1B2       0.412500
     34 H8           4.2270    -2.8530     2.4250 hn         1 1B2       0.412500
     35 H10          3.9440     1.0970     0.4390 hn         1 1B2       0.340500
     36 H11          1.3780     3.2790     1.7560 ha         1 1B2       0.130000
     37 H12         -0.7300     3.2750     3.0620 ha         1 1B2       0.117000
     38 H13         -2.6520     1.8940     2.3470 ha         1 1B2       0.117000
     39 H14         -0.3830     0.4980    -1.0600 ha         1 1B2       0.152000
     40 H15         -4.3770     1.6700     0.7600 ha         1 1B2       0.114000
     41 H16         -7.2430     0.8860     0.3020 h4         1 1B2       0.227000
     42 H17         -8.1740    -1.2680    -0.7470 hn         1 1B2       0.370000
     43 H18         -3.5470    -2.8110    -1.3130 ha         1 1B2       0.130000
     44 H19         -1.6220    -1.4220    -0.5810 ha         1 1B2       0.127000
@<TRIPOS>BOND
     1     1     2 2   
     2     2     3 1   
     3     2     8 1   
     4     3     4 1   
     5     3     7 1   
     6     3    27 1   
     7     4     5 1   
     8     4     6 1   
     9     4    28 1   
    10     5    29 1   
    11     5    30 1   
    12     5    31 1   
    13     6    32 1   
    14     7    33 1   
    15     7    34 1   
    16     8     9 1   
    17     8    35 1   
    18     9    10 2   
    19     9    11 2   
    20     9    12 1   
    21    12    13 ar  
    22    12    17 ar  
    23    13    14 ar  
    24    13    36 1   
    25    14    15 ar  
    26    14    37 1   
    27    15    16 ar  
    28    15    38 1   
    29    16    17 ar  
    30    16    18 1   
    31    17    39 1   
    32    18    19 ar  
    33    18    26 ar  
    34    19    20 ar  
    35    19    40 1   
    36    20    21 2   
    37    20    24 ar  
    38    21    22 1   
    39    21    41 1   
    40    22    23 1   
    41    22    42 1   
    42    23    24 2   
    43    24    25 ar  
    44    25    26 ar  
    45    25    43 1   
    46    26    44 1   
@<TRIPOS>SUBSTRUCTURE
     1 1B2         1 TEMP              0 ****  ****    0 ROOT
