@<TRIPOS>MOLECULE
1B3
   47    49     1     0     0
SMALL
abcg2


@<TRIPOS>ATOM
      1 CL2         -6.9110     1.2160    -2.3270 cl         1 1B3      -0.143000
      2 C25         -5.7750     0.9720    -1.0320 ca         1 1B3       0.279000
      3 N24         -4.6890     0.3490    -1.3470 nb         1 1B3      -0.203000
      4 N26         -6.1730     1.4620     0.1320 nb         1 1B3      -0.286000
      5 C27         -5.3460     1.3060     1.1570 ca         1 1B3       0.425900
      6 N28         -5.7260     1.7880     2.3340 nv         1 1B3      -1.067900
      7 C21         -4.0830     0.6380     0.9810 ca         1 1B3      -0.185000
      8 C22         -3.8120     0.1710    -0.3190 ca         1 1B3       0.066000
      9 C23         -2.5990    -0.4900    -0.5730 ca         1 1B3      -0.090000
     10 C20         -3.1360     0.4360     1.9970 ca         1 1B3      -0.065000
     11 C19         -1.9570    -0.2090     1.7300 ca         1 1B3      -0.113000
     12 C18         -1.6760    -0.6850     0.4320 cp         1 1B3      -0.001000
     13 C16         -0.4070    -1.3870     0.1520 cp         1 1B3      -0.062000
     14 C17          0.7800    -0.9670     0.7480 ca         1 1B3       0.023000
     15 C15         -0.3750    -2.4770    -0.7170 ca         1 1B3      -0.039000
     16 C14          0.8120    -3.1390    -0.9910 ca         1 1B3      -0.132000
     17 C13          1.9960    -2.7240    -0.4040 ca         1 1B3      -0.015000
     18 C12          1.9580    -1.6350     0.4580 ca         1 1B3      -0.295500
     19 S9           3.4730    -1.1020     1.1950 sy         1 1B3       1.184300
     20 O10          3.1830    -0.2350     2.3150 o          1 1B3      -0.526500
     21 O11          4.3390    -2.2530     1.3680 o          1 1B3      -0.526500
     22 N5           4.2190    -0.2120    -0.0130 ns         1 1B3      -0.588300
     23 C4           3.7330     0.9830    -0.4960 c          1 1B3       0.649100
     24 O8           2.7160     1.4720    -0.0710 o          1 1B3      -0.527100
     25 C3           4.6020     1.6070    -1.5770 c3         1 1B3       0.056500
     26 N7           3.8540     2.6550    -2.2290 n8         1 1B3      -0.990200
     27 C2           5.9540     2.0200    -0.9460 c3         1 1B3       0.133300
     28 C1           6.8610     2.7010    -1.9560 c3         1 1B3      -0.134100
     29 O6           5.7490     2.8080     0.2070 oh         1 1B3      -0.641000
     30 H1          -6.6170     2.2490     2.4180 hn         1 1B3       0.505500
     31 H2          -5.1730     1.6950     3.1670 hn         1 1B3       0.505500
     32 H3          -2.4040    -0.8220    -1.5850 ha         1 1B3       0.139000
     33 H4          -3.3200     0.7750     3.0080 ha         1 1B3       0.108000
     34 H5          -1.2500    -0.3740     2.5320 ha         1 1B3       0.125000
     35 H6           0.7840    -0.1150     1.4130 ha         1 1B3       0.151000
     36 H7          -1.2920    -2.8290    -1.1710 ha         1 1B3       0.124000
     37 H8           0.8140    -3.9890    -1.6590 ha         1 1B3       0.122000
     38 H9           2.9200    -3.2440    -0.6160 ha         1 1B3       0.131000
     39 H10          5.0040    -0.6700    -0.4620 hn         1 1B3       0.340500
     40 H11          4.8120     0.8340    -2.3240 h1         1 1B3       0.076700
     41 H12          3.7300     3.4570    -1.6240 hn         1 1B3       0.411000
     42 H13          4.3550     2.9760    -3.0470 hn         1 1B3       0.411000
     43 H15          6.4570     1.1140    -0.5950 h1         1 1B3       0.079700
     44 H16          6.4490     3.6560    -2.2890 hc         1 1B3       0.047367
     45 H17          7.8380     2.8970    -1.5150 hc         1 1B3       0.047367
     46 H18          7.0090     2.0750    -2.8360 hc         1 1B3       0.047367
     47 H19          5.4710     3.6900    -0.0620 ho         1 1B3       0.442000
@<TRIPOS>BOND
     1     1     2 1   
     2     2     3 ar  
     3     2     4 ar  
     4     3     8 ar  
     5     4     5 ar  
     6     5     6 1   
     7     5     7 ar  
     8     6    30 1   
     9     6    31 1   
    10     7     8 ar  
    11     7    10 ar  
    12     8     9 ar  
    13     9    12 ar  
    14     9    32 1   
    15    10    11 ar  
    16    10    33 1   
    17    11    12 ar  
    18    11    34 1   
    19    12    13 1   
    20    13    14 ar  
    21    13    15 ar  
    22    14    18 ar  
    23    14    35 1   
    24    15    16 ar  
    25    15    36 1   
    26    16    17 ar  
    27    16    37 1   
    28    17    18 ar  
    29    17    38 1   
    30    18    19 1   
    31    19    20 2   
    32    19    21 2   
    33    19    22 1   
    34    22    23 1   
    35    22    39 1   
    36    23    24 2   
    37    23    25 1   
    38    25    26 1   
    39    25    27 1   
    40    25    40 1   
    41    26    41 1   
    42    26    42 1   
    43    27    28 1   
    44    27    29 1   
    45    27    43 1   
    46    28    44 1   
    47    28    45 1   
    48    28    46 1   
    49    29    47 1   
@<TRIPOS>SUBSTRUCTURE
     1 1B3         1 TEMP              0 ****  ****    0 ROOT
