@<TRIPOS>MOLECULE
1B3
   47    49     1     0     0
SMALL
No Charge or Current Charge


@<TRIPOS>ATOM
      1 Cl2         -6.9840     1.6370    -2.1350 cl         1 1B3      -0.143000
      2 C25         -5.8170     1.2880    -0.8700 ca         1 1B3       0.279000
      3 N24         -4.7240     0.5880    -1.2330 nb         1 1B3      -0.203000
      4 N26         -6.1090     1.7470     0.3600 nb         1 1B3      -0.286000
      5 C27         -5.2130     1.4760     1.3160 ca         1 1B3       0.425900
      6 N28         -5.5540     1.9530     2.5440 nv         1 1B3      -1.067900
      7 C21         -4.0270     0.7530     1.0560 ca         1 1B3      -0.185000
      8 C22         -3.8170     0.3130    -0.2730 ca         1 1B3       0.066000
      9 C23         -2.6520    -0.4130    -0.5810 ca         1 1B3      -0.090000
     10 C20         -3.0670     0.4650     2.0510 ca         1 1B3      -0.065000
     11 C19         -1.9100    -0.2590     1.7230 ca         1 1B3      -0.113000
     12 C18         -1.6780    -0.7140     0.4030 cp         1 1B3      -0.001000
     13 C16         -0.4440    -1.4870     0.0560 cp         1 1B3      -0.062000
     14 C17          0.8030    -1.1820     0.6600 ca         1 1B3       0.023000
     15 C15         -0.4840    -2.5440    -0.8870 ca         1 1B3      -0.039000
     16 C14          0.6740    -3.2680    -1.2150 ca         1 1B3      -0.132000
     17 C13          1.9000    -2.9540    -0.6090 ca         1 1B3      -0.015000
     18 C12          1.9680    -1.9090     0.3340 ca         1 1B3      -0.295500
     19 S9           3.5420    -1.4930     1.1080 sy         1 1B3       1.184300
     20 O10          3.2820    -0.7050     2.3180 o          1 1B3      -0.526500
     21 O11          4.3870    -2.6920     1.1410 o          1 1B3      -0.526500
     22 N5           4.2960    -0.4650     0.0280 ns         1 1B3      -0.588300
     23 C4           3.8790     0.7700    -0.3720 c          1 1B3       0.649100
     24 O8           2.8350     1.2690     0.0250 o          1 1B3      -0.527100
     25 C3           4.8100     1.4700    -1.4270 c3         1 1B3       0.056500
     26 N7           4.1320     1.9150    -2.7080 n8         1 1B3      -0.990200
     27 C2           5.6250     2.6210    -0.7490 c3         1 1B3       0.133300
     28 C1           6.8930     3.0120    -1.5380 c3         1 1B3      -0.134100
     29 O6           4.8150     3.7940    -0.5840 oh         1 1B3      -0.641000
     30 H1          -6.5080     2.2810     2.6750 hn         1 1B3       0.505500
     31 H2          -5.1000     1.5630     3.3650 hn         1 1B3       0.505500
     32 H3          -2.4950    -0.7350    -1.6060 ha         1 1B3       0.139000
     33 H4          -3.2040     0.7960     3.0770 ha         1 1B3       0.108000
     34 H5          -1.1920    -0.4810     2.5080 ha         1 1B3       0.125000
     35 H6           0.8610    -0.3610     1.3720 ha         1 1B3       0.151000
     36 H7          -1.4250    -2.8150    -1.3600 ha         1 1B3       0.124000
     37 H8           0.6200    -4.0770    -1.9400 ha         1 1B3       0.122000
     38 H9           2.7900    -3.5230    -0.8750 ha         1 1B3       0.131000
     39 H10          5.1340    -0.8700    -0.3530 hn         1 1B3       0.340500
     40 H11          5.5440     0.7050    -1.7190 h1         1 1B3       0.076700
     41 H12          3.4230     2.6230    -2.4750 hn         1 1B3       0.411000
     42 H13          4.8020     2.4230    -3.2980 hn         1 1B3       0.411000
     43 H15          5.9560     2.2580     0.2360 h1         1 1B3       0.079700
     44 H16          6.6470     3.3940    -2.5370 hc         1 1B3       0.047367
     45 H17          7.4550     3.7880    -1.0040 hc         1 1B3       0.047367
     46 H18          7.5530     2.1450    -1.6580 hc         1 1B3       0.047367
     47 H19          4.9280     4.3410    -1.3910 ho         1 1B3       0.442000
@<TRIPOS>BOND
     1     1     2 1   
     2     2     3 ar  
     3     2     4 ar  
     4     3     8 ar  
     5     4     5 ar  
     6     5     6 1   
     7     5     7 ar  
     8     6    30 1   
     9     6    31 1   
    10     7     8 ar  
    11     7    10 ar  
    12     8     9 ar  
    13     9    12 ar  
    14     9    32 1   
    15    10    11 ar  
    16    10    33 1   
    17    11    12 ar  
    18    11    34 1   
    19    12    13 1   
    20    13    14 ar  
    21    13    15 ar  
    22    14    18 ar  
    23    14    35 1   
    24    15    16 ar  
    25    15    36 1   
    26    16    17 ar  
    27    16    37 1   
    28    17    18 ar  
    29    17    38 1   
    30    18    19 1   
    31    19    20 2   
    32    19    21 2   
    33    19    22 1   
    34    22    23 1   
    35    22    39 1   
    36    23    24 2   
    37    23    25 1   
    38    25    26 1   
    39    25    27 1   
    40    25    40 1   
    41    26    41 1   
    42    26    42 1   
    43    27    28 1   
    44    27    29 1   
    45    27    43 1   
    46    28    44 1   
    47    28    45 1   
    48    28    46 1   
    49    29    47 1   
@<TRIPOS>SUBSTRUCTURE
     1 1B3         1 TEMP              0 ****  ****    0 ROOT
