@<TRIPOS>MOLECULE
1B4
   49    51     1     0     0
SMALL
abcg2


@<TRIPOS>ATOM
      1 C1           1.6840     0.5750    -0.1800 cp         1 1B4      -0.073500
      2 N2          -0.7220     3.4280    -0.5020 nb         1 1B4      -0.643000
      3 C3           0.3930     2.7170    -0.4650 ca         1 1B4       0.317900
      4 C4           0.4160     1.3330    -0.1930 cp         1 1B4       0.341500
      5 N5          -0.7020     0.6540     0.0320 nb         1 1B4      -0.574000
      6 C6          -1.8140     2.7350    -0.2630 ca         1 1B4       0.309500
      7 C7          -1.8300     1.3470     0.0040 ca         1 1B4       0.350800
      8 C8          -3.2010     0.9740     0.1780 cc         1 1B4      -0.316000
      9 C9          -3.9220     2.1350     0.0240 cd         1 1B4      -0.110100
     10 N10         -3.0980     3.1800    -0.2400 na         1 1B4      -0.310400
     11 C11          2.8970     1.2120     0.0710 ca         1 1B4      -0.201500
     12 C12          4.0810     0.4780     0.0670 ca         1 1B4       0.151100
     13 C13          4.0540    -0.8940    -0.1930 ca         1 1B4       0.035100
     14 C14          2.8310    -1.5300    -0.4260 ca         1 1B4       0.151100
     15 C15          1.6510    -0.7960    -0.4230 ca         1 1B4      -0.201500
     16 O16          5.2950     1.0020     0.3030 os         1 1B4      -0.325100
     17 C17          5.3980     2.3940     0.5250 c3         1 1B4       0.144400
     18 O18          5.2110    -1.6030    -0.2340 os         1 1B4      -0.329100
     19 C19          5.6090    -2.1480     1.0170 c3         1 1B4       0.148900
     20 O20          2.9010    -2.8520    -0.6540 os         1 1B4      -0.325100
     21 C21          1.6990    -3.5600    -0.8870 c3         1 1B4       0.144400
     22 C22         -3.7110    -0.3650     0.5200 c          1 1B4       0.641300
     23 N23         -5.0000    -0.5960     0.2060 ns         1 1B4      -0.511900
     24 O24         -2.9960    -1.1930     1.0710 o          1 1B4      -0.579100
     25 C25         -5.6850    -1.8460     0.4880 c3         1 1B4       0.113700
     26 C26         -7.1660    -1.5680     0.7010 c3         1 1B4      -0.108600
     27 C27         -5.4580    -2.8730    -0.6170 c3         1 1B4      -0.108600
     28 H2          -4.9850     2.2980     0.1070 h4         1 1B4       0.220000
     29 H3          -3.3940     4.1350    -0.3730 hn         1 1B4       0.368000
     30 H4           2.9180     2.2670     0.3000 ha         1 1B4       0.132000
     31 H5           0.6970    -1.2680    -0.6110 ha         1 1B4       0.132000
     32 H6           6.4550     2.6070     0.6630 h1         1 1B4       0.042867
     33 H7           5.0310     2.9710    -0.3280 h1         1 1B4       0.042867
     34 H8           4.8570     2.7070     1.4220 h1         1 1B4       0.042867
     35 H9           5.7920    -1.3670     1.7590 h1         1 1B4       0.034033
     36 H10          4.8630    -2.8420     1.4130 h1         1 1B4       0.034033
     37 H11          6.5370    -2.6920     0.8490 h1         1 1B4       0.034033
     38 H12          1.1910    -3.2150    -1.7910 h1         1 1B4       0.042867
     39 H13          1.9770    -4.6030    -1.0170 h1         1 1B4       0.042867
     40 H14          1.0090    -3.4810    -0.0430 h1         1 1B4       0.042867
     41 H15         -5.4760     0.0590    -0.3950 hn         1 1B4       0.302500
     42 H16         -5.2700    -2.2370     1.4190 h1         1 1B4       0.077700
     43 H17         -7.6280    -1.1660    -0.2040 hc         1 1B4       0.040867
     44 H18         -7.6890    -2.4890     0.9560 hc         1 1B4       0.040867
     45 H19         -7.3230    -0.8540     1.5100 hc         1 1B4       0.040867
     46 H20         -5.9460    -3.8160    -0.3660 hc         1 1B4       0.040867
     47 H21         -5.8700    -2.5220    -1.5650 hc         1 1B4       0.040867
     48 H22         -4.3960    -3.0730    -0.7570 hc         1 1B4       0.040867
     49 H1           1.3090     3.2520    -0.6820 h4         1 1B4       0.033100
@<TRIPOS>BOND
     1     1     4 1   
     2     1    11 ar  
     3     1    15 ar  
     4     2     3 ar  
     5     2     6 ar  
     6     3     4 ar  
     7     3    49 1   
     8     4     5 ar  
     9     5     7 ar  
    10     6     7 ar  
    11     6    10 1   
    12     7     8 1   
    13     8     9 2   
    14     8    22 1   
    15     9    10 1   
    16     9    28 1   
    17    10    29 1   
    18    11    12 ar  
    19    11    30 1   
    20    12    13 ar  
    21    12    16 1   
    22    13    14 ar  
    23    13    18 1   
    24    14    15 ar  
    25    14    20 1   
    26    15    31 1   
    27    16    17 1   
    28    17    32 1   
    29    17    33 1   
    30    17    34 1   
    31    18    19 1   
    32    19    35 1   
    33    19    36 1   
    34    19    37 1   
    35    20    21 1   
    36    21    38 1   
    37    21    39 1   
    38    21    40 1   
    39    22    23 1   
    40    22    24 2   
    41    23    25 1   
    42    23    41 1   
    43    25    26 1   
    44    25    27 1   
    45    25    42 1   
    46    26    43 1   
    47    26    44 1   
    48    26    45 1   
    49    27    46 1   
    50    27    47 1   
    51    27    48 1   
@<TRIPOS>SUBSTRUCTURE
     1 1B4         1 TEMP              0 ****  ****    0 ROOT
