@<TRIPOS>MOLECULE
1B4
   49    51     1     0     0
SMALL
No Charge or Current Charge


@<TRIPOS>ATOM
      1 C1           1.7280     0.6660    -0.0800 cp         1 1B4      -0.073500
      2 N2          -0.8030     3.4930    -0.8140 nb         1 1B4      -0.643000
      3 C3           0.3670     2.8070    -0.6350 ca         1 1B4       0.317900
      4 C4           0.4240     1.4120    -0.2710 cp         1 1B4       0.341500
      5 N5          -0.7290     0.7030    -0.0960 nb         1 1B4      -0.574000
      6 C6          -1.9200     2.7530    -0.6240 ca         1 1B4       0.309500
      7 C7          -1.8700     1.4050    -0.2780 ca         1 1B4       0.350800
      8 C8          -3.2170     0.9300    -0.1630 cc         1 1B4      -0.316000
      9 C9          -4.0490     2.0170    -0.4430 cd         1 1B4      -0.110100
     10 N10         -3.2420     3.1470    -0.7280 na         1 1B4      -0.310400
     11 C11          2.9410     1.3500     0.1790 ca         1 1B4      -0.201500
     12 C12          4.1590     0.6580     0.3560 ca         1 1B4       0.151100
     13 C13          4.2000    -0.7540     0.2810 ca         1 1B4       0.035100
     14 C14          2.9910    -1.4690     0.0270 ca         1 1B4       0.151100
     15 C15          1.7860    -0.7500    -0.1480 ca         1 1B4      -0.201500
     16 O16          5.3430     1.3330     0.6110 os         1 1B4      -0.325100
     17 C17          5.4230     2.7660     0.7050 c3         1 1B4       0.144400
     18 O18          5.4510    -1.3470     0.4690 os         1 1B4      -0.329100
     19 C19          5.7120    -2.7610     0.4330 c3         1 1B4       0.148900
     20 O20          2.9930    -2.8540    -0.0510 os         1 1B4      -0.325100
     21 C21          1.8090    -3.6350    -0.2950 c3         1 1B4       0.144400
     22 C22         -3.6430    -0.4420     0.1830 c          1 1B4       0.641300
     23 N23         -5.0110    -0.5980     0.2180 ns         1 1B4      -0.511900
     24 O24         -2.8820    -1.3670     0.4200 o          1 1B4      -0.579100
     25 C25         -5.7050    -1.8500     0.5140 c3         1 1B4       0.113700
     26 C26         -7.0820    -1.5580     1.1390 c3         1 1B4      -0.108600
     27 C27         -5.8120    -2.7270    -0.7490 c3         1 1B4      -0.108600
     28 H2          -5.1360     2.0830    -0.4650 h4         1 1B4       0.220000
     29 H3          -3.5590     4.0800    -0.9680 hn         1 1B4       0.368000
     30 H4           2.9240     2.4310     0.2590 ha         1 1B4       0.132000
     31 H5           0.8640    -1.2860    -0.3480 ha         1 1B4       0.132000
     32 H6           6.4560     3.0760     0.9070 h1         1 1B4       0.042867
     33 H7           5.1050     3.2380    -0.2330 h1         1 1B4       0.042867
     34 H8           4.7910     3.1400     1.5220 h1         1 1B4       0.042867
     35 H9           5.1450    -3.2860     1.2120 h1         1 1B4       0.034033
     36 H10          5.4570    -3.1820    -0.5480 h1         1 1B4       0.034033
     37 H11          6.7780    -2.9510     0.6100 h1         1 1B4       0.034033
     38 H12          1.3640    -3.3790    -1.2640 h1         1 1B4       0.042867
     39 H13          2.0570    -4.7040    -0.3080 h1         1 1B4       0.042867
     40 H14          1.0630    -3.4700     0.4930 h1         1 1B4       0.042867
     41 H15         -5.5650     0.2200     0.0100 hn         1 1B4       0.302500
     42 H16         -5.1140    -2.4020     1.2600 h1         1 1B4       0.077700
     43 H17         -7.7200    -1.0060     0.4390 hc         1 1B4       0.040867
     44 H18         -7.5900    -2.4920     1.4050 hc         1 1B4       0.040867
     45 H19         -6.9720    -0.9600     2.0520 hc         1 1B4       0.040867
     46 H20         -6.3090    -3.6760    -0.5180 hc         1 1B4       0.040867
     47 H21         -6.3890    -2.2160    -1.5300 hc         1 1B4       0.040867
     48 H22         -4.8170    -2.9540    -1.1500 hc         1 1B4       0.040867
     49 H1           1.2770     3.3800    -0.8010 h4         1 1B4       0.033100
@<TRIPOS>BOND
     1     1     4 1   
     2     1    11 ar  
     3     1    15 ar  
     4     2     3 ar  
     5     2     6 ar  
     6     3     4 ar  
     7     3    49 1   
     8     4     5 ar  
     9     5     7 ar  
    10     6     7 ar  
    11     6    10 1   
    12     7     8 1   
    13     8     9 2   
    14     8    22 1   
    15     9    10 1   
    16     9    28 1   
    17    10    29 1   
    18    11    12 ar  
    19    11    30 1   
    20    12    13 ar  
    21    12    16 1   
    22    13    14 ar  
    23    13    18 1   
    24    14    15 ar  
    25    14    20 1   
    26    15    31 1   
    27    16    17 1   
    28    17    32 1   
    29    17    33 1   
    30    17    34 1   
    31    18    19 1   
    32    19    35 1   
    33    19    36 1   
    34    19    37 1   
    35    20    21 1   
    36    21    38 1   
    37    21    39 1   
    38    21    40 1   
    39    22    23 1   
    40    22    24 2   
    41    23    25 1   
    42    23    41 1   
    43    25    26 1   
    44    25    27 1   
    45    25    42 1   
    46    26    43 1   
    47    26    44 1   
    48    26    45 1   
    49    27    46 1   
    50    27    47 1   
    51    27    48 1   
@<TRIPOS>SUBSTRUCTURE
     1 1B4         1 TEMP              0 ****  ****    0 ROOT
