@<TRIPOS>MOLECULE
1B5
   43    46     1     0     0
SMALL
No Charge or Current Charge


@<TRIPOS>ATOM
      1 C1          -0.0490     3.3180     0.0670 ca         1 1B5       0.334900
      2 C2           0.3220     1.9370    -0.0230 ca         1 1B5       0.288700
      3 N3          -0.6370     0.9600    -0.0610 nb         1 1B5      -0.575000
      4 C4          -1.9100     1.4110    -0.0070 ca         1 1B5       0.347800
      5 C5          -2.2700     2.7530     0.0810 ca         1 1B5       0.311500
      6 N6          -1.3490     3.7440     0.1200 nb         1 1B5      -0.644000
      7 C7          -3.1130     0.6330    -0.0280 cc         1 1B5      -0.316000
      8 C8          -4.1740     1.5380     0.0500 cd         1 1B5      -0.111100
      9 N9          -3.6480     2.8530     0.1170 na         1 1B5      -0.309400
     10 C10          1.7580     1.5740    -0.0750 cc         1 1B5       0.297900
     11 C11         -3.2100    -0.8390    -0.1130 c          1 1B5       0.643300
     12 O12         -2.2520    -1.5950    -0.1810 o          1 1B5      -0.585100
     13 N13         -4.5050    -1.3030    -0.1130 ns         1 1B5      -0.509900
     14 C14         -4.8910    -2.7130    -0.1720 c3         1 1B5       0.112700
     15 N15          2.7430     2.4940    -0.0420 nd         1 1B5      -0.519100
     16 N16          3.9000     1.7300    -0.1120 na         1 1B5       0.088600
     17 C17          3.6570     0.3770    -0.1860 ca         1 1B5      -0.043200
     18 C18          2.3020     0.2200    -0.1670 ca         1 1B5      -0.196900
     19 C19          4.5410    -0.7080    -0.2690 ca         1 1B5      -0.134000
     20 C20          3.9820    -1.9990    -0.3330 ca         1 1B5       0.158000
     21 C21          2.5790    -2.1750    -0.3140 ca         1 1B5      -0.150000
     22 C22          1.7160    -1.0600    -0.2290 ca         1 1B5      -0.004000
     23 C23          5.2470     2.3220    -0.1060 c3         1 1B5       0.080900
     24 Cl2          5.0370    -3.4020    -0.4380 cl         1 1B5      -0.208000
     25 C25         -4.8470    -3.3490     1.2310 c3         1 1B5      -0.108600
     26 C26         -6.2740    -2.8560    -0.8330 c3         1 1B5      -0.108600
     27 H1           0.7050     4.1030     0.0980 h4         1 1B5       0.048100
     28 H2          -5.2500     1.3610     0.0620 h4         1 1B5       0.219000
     29 H3          -4.1720     3.7190     0.1800 hn         1 1B5       0.368000
     30 H4          -5.2360    -0.6080    -0.0560 hn         1 1B5       0.302500
     31 H5          -4.1650    -3.2410    -0.8070 h1         1 1B5       0.078700
     32 H6           5.6180    -0.5660    -0.2840 ha         1 1B5       0.133000
     33 H7           2.1620    -3.1770    -0.3640 ha         1 1B5       0.133000
     34 H8           0.6400    -1.2100    -0.2150 ha         1 1B5       0.163000
     35 H9           5.8080     1.9440     0.7570 h1         1 1B5       0.056033
     36 H10          5.7700     2.0490    -1.0300 h1         1 1B5       0.056033
     37 H11          5.1740     3.4140    -0.0400 h1         1 1B5       0.056033
     38 H12         -5.5510    -2.8510     1.9080 hc         1 1B5       0.041033
     39 H13         -5.1100    -4.4120     1.1810 hc         1 1B5       0.041033
     40 H14         -3.8410    -3.2700     1.6620 hc         1 1B5       0.041033
     41 H15         -6.2670    -2.4230    -1.8400 hc         1 1B5       0.041033
     42 H16         -6.5510    -3.9140    -0.9210 hc         1 1B5       0.041033
     43 H17         -7.0460    -2.3460    -0.2420 hc         1 1B5       0.041033
@<TRIPOS>BOND
     1     1     2 ar  
     2     1     6 ar  
     3     1    27 1   
     4     2     3 ar  
     5     2    10 1   
     6     3     4 ar  
     7     4     5 ar  
     8     4     7 1   
     9     5     6 ar  
    10     5     9 1   
    11     7     8 2   
    12     7    11 1   
    13     8     9 1   
    14     8    28 1   
    15     9    29 1   
    16    10    15 2   
    17    10    18 1   
    18    11    12 2   
    19    11    13 1   
    20    13    14 1   
    21    13    30 1   
    22    14    25 1   
    23    14    26 1   
    24    14    31 1   
    25    15    16 1   
    26    16    17 1   
    27    16    23 1   
    28    17    18 ar  
    29    17    19 ar  
    30    18    22 ar  
    31    19    20 ar  
    32    19    32 1   
    33    20    21 ar  
    34    20    24 1   
    35    21    22 ar  
    36    21    33 1   
    37    22    34 1   
    38    23    35 1   
    39    23    36 1   
    40    23    37 1   
    41    25    38 1   
    42    25    39 1   
    43    25    40 1   
    44    26    41 1   
    45    26    42 1   
    46    26    43 1   
@<TRIPOS>SUBSTRUCTURE
     1 1B5         1 TEMP              0 ****  ****    0 ROOT
