@<TRIPOS>MOLECULE
1B5
   43    46     1     0     0
SMALL
abcg2


@<TRIPOS>ATOM
      1 C1          -0.0520     3.3050     0.0010 ca         1 1B5       0.334900
      2 C2           0.2890     1.9390    -0.0830 ca         1 1B5       0.288700
      3 N3          -0.6300     0.9880    -0.1840 nb         1 1B5      -0.575000
      4 C4          -1.8910     1.3940    -0.2030 ca         1 1B5       0.347800
      5 C5          -2.2020     2.7690    -0.1070 ca         1 1B5       0.311500
      6 N6          -1.3040     3.7280    -0.0070 nb         1 1B5      -0.644000
      7 C7          -3.1320     0.6880    -0.2800 cc         1 1B5      -0.316000
      8 C8          -4.1080     1.6560    -0.2380 cd         1 1B5      -0.111100
      9 N9          -3.5560     2.8910    -0.1350 na         1 1B5      -0.309400
     10 C10          1.6790     1.4970    -0.0640 cc         1 1B5       0.297900
     11 C11         -3.2990    -0.7690    -0.4240 c          1 1B5       0.643300
     12 O12         -2.3940    -1.4710    -0.8610 o          1 1B5      -0.585100
     13 N13         -4.5010    -1.2570    -0.0640 ns         1 1B5      -0.509900
     14 C14         -4.8490    -2.6670    -0.1390 c3         1 1B5       0.112700
     15 N15          2.6730     2.3410     0.0990 nd         1 1B5      -0.519100
     16 N16          3.8060     1.6460     0.0590 na         1 1B5       0.088600
     17 C17          3.5720     0.3230    -0.1150 ca         1 1B5      -0.043200
     18 C18          2.1790     0.1700    -0.2100 ca         1 1B5      -0.196900
     19 C19          4.4600    -0.7540    -0.2020 ca         1 1B5      -0.134000
     20 C20          3.8850    -1.9870    -0.3960 ca         1 1B5       0.158000
     21 C21          2.4940    -2.1780    -0.5050 ca         1 1B5      -0.150000
     22 C22          1.6360    -1.1070    -0.4130 ca         1 1B5      -0.004000
     23 C23          5.0730     2.2920     0.2910 c3         1 1B5       0.080900
     24 CL2          4.9110    -3.3800    -0.5160 cl         1 1B5      -0.208000
     25 C25         -4.4040    -3.4180     1.1110 c3         1 1B5      -0.108600
     26 C26         -6.3460    -2.8010    -0.3760 c3         1 1B5      -0.108600
     27 H1           0.7240     4.0560     0.0780 h4         1 1B5       0.048100
     28 H2          -5.1810     1.5530    -0.2950 h4         1 1B5       0.219000
     29 H3          -4.0720     3.7560    -0.1020 hn         1 1B5       0.368000
     30 H4          -5.1300    -0.6620     0.4520 hn         1 1B5       0.302500
     31 H5          -4.3210    -3.0800    -1.0000 h1         1 1B5       0.078700
     32 H6           5.5320    -0.6320    -0.1210 ha         1 1B5       0.133000
     33 H7           2.1050    -3.1740    -0.6600 ha         1 1B5       0.133000
     34 H8           0.5680    -1.2470    -0.4940 ha         1 1B5       0.163000
     35 H9           5.3560     2.2390     1.3430 h1         1 1B5       0.056033
     36 H10          5.8450     1.8150    -0.3080 h1         1 1B5       0.056033
     37 H11          4.9960     3.3330    -0.0060 h1         1 1B5       0.056033
     38 H12         -4.9050    -3.0260     1.9990 hc         1 1B5       0.041033
     39 H13         -4.6470    -4.4780     1.0290 hc         1 1B5       0.041033
     40 H14         -3.3280    -3.3300     1.2600 hc         1 1B5       0.041033
     41 H15         -6.6520    -2.2810    -1.2830 hc         1 1B5       0.041033
     42 H16         -6.6190    -3.8510    -0.4800 hc         1 1B5       0.041033
     43 H17         -6.9170    -2.3940     0.4620 hc         1 1B5       0.041033
@<TRIPOS>BOND
     1     1     2 ar  
     2     1     6 ar  
     3     1    27 1   
     4     2     3 ar  
     5     2    10 1   
     6     3     4 ar  
     7     4     5 ar  
     8     4     7 1   
     9     5     6 ar  
    10     5     9 1   
    11     7     8 2   
    12     7    11 1   
    13     8     9 1   
    14     8    28 1   
    15     9    29 1   
    16    10    15 2   
    17    10    18 1   
    18    11    12 2   
    19    11    13 1   
    20    13    14 1   
    21    13    30 1   
    22    14    25 1   
    23    14    26 1   
    24    14    31 1   
    25    15    16 1   
    26    16    17 1   
    27    16    23 1   
    28    17    18 ar  
    29    17    19 ar  
    30    18    22 ar  
    31    19    20 ar  
    32    19    32 1   
    33    20    21 ar  
    34    20    24 1   
    35    21    22 ar  
    36    21    33 1   
    37    22    34 1   
    38    23    35 1   
    39    23    36 1   
    40    23    37 1   
    41    25    38 1   
    42    25    39 1   
    43    25    40 1   
    44    26    41 1   
    45    26    42 1   
    46    26    43 1   
@<TRIPOS>SUBSTRUCTURE
     1 1B5         1 TEMP              0 ****  ****    0 ROOT
