@<TRIPOS>MOLECULE
1B6
   47    50     1     0     0
SMALL
bcc


@<TRIPOS>ATOM
      1 N1          -0.4790    -3.6320    -0.1180 nb         1 1B6      -0.647000
      2 C2          -1.5870    -2.9150    -0.0330 ca         1 1B6       0.331900
      3 C3          -1.5870    -1.5010    -0.0130 ca         1 1B6       0.287000
      4 N4          -0.4600    -0.8030    -0.0920 nb         1 1B6      -0.600000
      5 C5           0.6580    -1.5080    -0.1980 ca         1 1B6       0.349800
      6 C6           0.6260    -2.9170    -0.1970 ca         1 1B6       0.301500
      7 C7           2.0330    -1.1220    -0.2860 cc         1 1B6      -0.324000
      8 C8           2.7450    -2.2970    -0.3380 cd         1 1B6      -0.067100
      9 N9           1.9100    -3.3650    -0.2840 na         1 1B6      -0.261100
     10 C10         -2.8360    -0.7630     0.1030 cc         1 1B6       0.224300
     11 C11          2.5510     0.2560    -0.3890 c          1 1B6       0.716300
     12 N12          3.8000     0.4310     0.0840 ns         1 1B6      -0.583900
     13 O13          1.8720     1.1460    -0.8850 o          1 1B6      -0.590100
     14 C14          4.5990     1.6610     0.0220 c3         1 1B6       0.142400
     15 C15          3.9350     2.7900     0.8130 c3         1 1B6      -0.103100
     16 C16          5.9450     1.3190     0.6600 c3         1 1B6      -0.103100
     17 N17         -4.0470    -1.3970     0.1850 nc         1 1B6      -0.668000
     18 C18         -4.9320    -0.4460     0.2950 cd         1 1B6       0.388400
     19 N19         -4.3570     0.7780     0.2930 na         1 1B6      -0.190900
     20 C20         -3.0090     0.6050     0.1640 cd         1 1B6      -0.131900
     21 C21          4.8290     2.0830    -1.4290 c3         1 1B6      -0.103100
     22 C22         -5.0430     2.0600     0.3450 c6         1 1B6       0.045300
     23 C23         -4.0750     3.1520     0.7640 c6         1 1B6      -0.093400
     24 C24         -2.8060     3.0800    -0.0740 c6         1 1B6      -0.080400
     25 C25         -2.0700     1.7640     0.1660 c6         1 1B6      -0.010100
     26 H1          -2.5220    -3.4560     0.0300 h4         1 1B6       0.052100
     27 H2           3.8080    -2.4510    -0.4390 h4         1 1B6       0.166000
     28 H3           2.1960    -4.3310    -0.3300 hn         1 1B6       0.315700
     29 H4           4.2070    -0.3350     0.5970 hn         1 1B6       0.304500
     30 H5           3.7290     2.4750     1.8370 hc         1 1B6       0.043367
     31 H6           4.5980     3.6560     0.8550 hc         1 1B6       0.043367
     32 H7           3.0000     3.1030     0.3540 hc         1 1B6       0.043367
     33 H8           6.4440     0.5120     0.1210 hc         1 1B6       0.043367
     34 H9           6.5990     2.1900     0.6390 hc         1 1B6       0.043367
     35 H10          5.8270     1.0150     1.7030 hc         1 1B6       0.043367
     36 H11         -6.0000    -0.5780     0.3820 h5         1 1B6       0.054100
     37 H12          3.9010     2.3620    -1.9240 hc         1 1B6       0.043367
     38 H13          5.4970     2.9460    -1.4630 hc         1 1B6       0.043367
     39 H14          5.2940     1.2760    -1.9970 hc         1 1B6       0.043367
     40 H15         -5.4530     2.2820    -0.6420 h1         1 1B6       0.055700
     41 H16         -5.8770     1.9770     1.0420 h1         1 1B6       0.055700
     42 H17         -4.5710     4.1160     0.6430 hc         1 1B6       0.054200
     43 H18         -3.8300     3.0490     1.8250 hc         1 1B6       0.054200
     44 H19         -3.0650     3.1760    -1.1330 hc         1 1B6       0.050200
     45 H20         -2.1430     3.9130     0.1620 hc         1 1B6       0.050200
     46 H21         -1.5600     1.8000     1.1340 hc         1 1B6       0.083200
     47 H22         -1.2830     1.6060    -0.5700 hc         1 1B6       0.083200
@<TRIPOS>BOND
     1     1     2 ar  
     2     1     6 ar  
     3     2     3 ar  
     4     2    26 1   
     5     3     4 ar  
     6     3    10 1   
     7     4     5 ar  
     8     5     6 ar  
     9     5     7 1   
    10     6     9 1   
    11     7     8 2   
    12     7    11 1   
    13     8     9 1   
    14     8    27 1   
    15     9    28 1   
    16    10    17 1   
    17    10    20 2   
    18    11    12 1   
    19    11    13 2   
    20    12    14 1   
    21    12    29 1   
    22    14    15 1   
    23    14    16 1   
    24    14    21 1   
    25    15    30 1   
    26    15    31 1   
    27    15    32 1   
    28    16    33 1   
    29    16    34 1   
    30    16    35 1   
    31    17    18 2   
    32    18    19 1   
    33    18    36 1   
    34    19    20 1   
    35    19    22 1   
    36    20    25 1   
    37    21    37 1   
    38    21    38 1   
    39    21    39 1   
    40    22    23 1   
    41    22    40 1   
    42    22    41 1   
    43    23    24 1   
    44    23    42 1   
    45    23    43 1   
    46    24    25 1   
    47    24    44 1   
    48    24    45 1   
    49    25    46 1   
    50    25    47 1   
@<TRIPOS>SUBSTRUCTURE
     1 1B6         1 TEMP              0 ****  ****    0 ROOT
