@<TRIPOS>MOLECULE
1B6
   47    50     1     0     0
SMALL
No Charge or Current Charge


@<TRIPOS>ATOM
      1 N1          -0.4670    -3.6710     0.0580 nb         1 1B6      -0.647000
      2 C2          -1.6190    -2.9310     0.0660 ca         1 1B6       0.331900
      3 C3          -1.6330    -1.4970     0.0620 ca         1 1B6       0.287000
      4 N4          -0.4610    -0.7910     0.0550 nb         1 1B6      -0.600000
      5 C5           0.6590    -1.5480     0.0480 ca         1 1B6       0.349800
      6 C6           0.6720    -2.9400     0.0490 ca         1 1B6       0.301500
      7 C7           2.0190    -1.0950     0.0370 cc         1 1B6      -0.324000
      8 C8           2.8200    -2.2400     0.0330 cd         1 1B6      -0.117100
      9 N9           1.9810    -3.3840     0.0400 na         1 1B6      -0.311400
     10 C10         -2.9420    -0.7900     0.0790 cc         1 1B6       0.159000
     11 C11          2.4830     0.3090     0.0320 c          1 1B6       0.649300
     12 N12          3.8590     0.4170     0.0220 ns         1 1B6      -0.516900
     13 O13          1.7390     1.2780     0.0360 o          1 1B6      -0.590100
     14 C14          4.6620     1.6470     0.0150 c3         1 1B6       0.142400
     15 C15          4.3880     2.4850     1.2890 c3         1 1B6      -0.103100
     16 C16          6.1470     1.2160     0.0050 c3         1 1B6      -0.103100
     17 N17         -4.1570    -1.4340     0.1500 nc         1 1B6      -0.668000
     18 C18         -5.0780    -0.4760     0.1710 cd         1 1B6       0.388400
     19 N19         -4.4620     0.7630     0.1210 na         1 1B6      -0.169500
     20 C20         -3.0960     0.5840     0.0420 cd         1 1B6      -0.117300
     21 C21          4.3700     2.4810    -1.2580 c3         1 1B6      -0.103100
     22 C22         -5.1310     2.0790     0.1150 c6         1 1B6       0.074600
     23 C23         -4.1250     3.2010     0.4930 c6         1 1B6      -0.093400
     24 C24         -2.7990     3.0710    -0.3080 c6         1 1B6      -0.080400
     25 C25         -2.0860     1.7190    -0.0260 c6         1 1B6      -0.010100
     26 H1          -2.5470    -3.5010     0.0750 h4         1 1B6       0.052100
     27 H2           3.9050    -2.3410     0.0250 h4         1 1B6       0.216000
     28 H3           2.2720    -4.3550     0.0390 hn         1 1B6       0.366000
     29 H4           4.3600    -0.4590     0.0200 hn         1 1B6       0.304500
     30 H5           4.5480     1.8840     2.1930 hc         1 1B6       0.043367
     31 H6           5.0600     3.3510     1.3360 hc         1 1B6       0.043367
     32 H7           3.3610     2.8650     1.3120 hc         1 1B6       0.043367
     33 H8           6.3750     0.6140    -0.8840 hc         1 1B6       0.043367
     34 H9           6.8090     2.0910    -0.0010 hc         1 1B6       0.043367
     35 H10          6.3880     0.6170     0.8920 hc         1 1B6       0.043367
     36 H11         -6.1540    -0.5950     0.2240 h5         1 1B6       0.054100
     37 H12          3.3420     2.8610    -1.2670 hc         1 1B6       0.043367
     38 H13          5.0410     3.3470    -1.3170 hc         1 1B6       0.043367
     39 H14          4.5170     1.8770    -2.1620 hc         1 1B6       0.043367
     40 H15         -5.5300     2.2630    -0.8920 h1         1 1B6       0.055700
     41 H16         -5.9730     2.0720     0.8210 h1         1 1B6       0.055700
     42 H17         -4.5830     4.1830     0.3110 hc         1 1B6       0.054200
     43 H18         -3.9090     3.1520     1.5690 hc         1 1B6       0.054200
     44 H19         -3.0180     3.1510    -1.3820 hc         1 1B6       0.050200
     45 H20         -2.1260     3.9050    -0.0660 hc         1 1B6       0.050200
     46 H21         -1.5350     1.7840     0.9220 hc         1 1B6       0.083200
     47 H22         -1.3380     1.5440    -0.8110 hc         1 1B6       0.083200
@<TRIPOS>BOND
     1     1     2 ar  
     2     1     6 ar  
     3     2     3 ar  
     4     2    26 1   
     5     3     4 ar  
     6     3    10 1   
     7     4     5 ar  
     8     5     6 ar  
     9     5     7 1   
    10     6     9 1   
    11     7     8 2   
    12     7    11 1   
    13     8     9 1   
    14     8    27 1   
    15     9    28 1   
    16    10    17 1   
    17    10    20 2   
    18    11    12 1   
    19    11    13 2   
    20    12    14 1   
    21    12    29 1   
    22    14    15 1   
    23    14    16 1   
    24    14    21 1   
    25    15    30 1   
    26    15    31 1   
    27    15    32 1   
    28    16    33 1   
    29    16    34 1   
    30    16    35 1   
    31    17    18 2   
    32    18    19 1   
    33    18    36 1   
    34    19    20 1   
    35    19    22 1   
    36    20    25 1   
    37    21    37 1   
    38    21    38 1   
    39    21    39 1   
    40    22    23 1   
    41    22    40 1   
    42    22    41 1   
    43    23    24 1   
    44    23    42 1   
    45    23    43 1   
    46    24    25 1   
    47    24    44 1   
    48    24    45 1   
    49    25    46 1   
    50    25    47 1   
@<TRIPOS>SUBSTRUCTURE
     1 1B6         1 TEMP              0 ****  ****    0 ROOT
