@<TRIPOS>MOLECULE
1B7
   51    53     1     0     0
SMALL
No Charge or Current Charge


@<TRIPOS>ATOM
      1 C1           4.7520     0.1320     0.4950 ca         1 1B7      -0.115000
      2 C3           2.3030     0.0710     0.4910 ca         1 1B7      -0.158900
      3 C4           2.3510    -1.0390     1.3700 ca         1 1B7      -0.072000
      4 C5           3.5860    -1.5410     1.8150 ca         1 1B7      -0.122000
      5 C6           4.7840    -0.9520     1.3830 ca         1 1B7       0.123000
      6 C7           3.4650     1.8010    -0.9360 c6         1 1B7      -0.059100
      7 C8           2.1810     1.7480    -1.8090 c6         1 1B7       0.168200
      8 C10          1.0070     0.6370    -0.0290 ce         1 1B7       0.696800
      9 C11          1.9720     3.0990    -2.5520 c3         1 1B7      -0.080100
     10 C12          2.2740     0.6200    -2.8820 c3         1 1B7      -0.080100
     11 C15         -1.3410     2.1280     2.0590 c          1 1B7       0.710000
     12 C18         -2.6620     0.3520     0.7640 c3         1 1B7      -0.008100
     13 C19         -2.9730    -0.3690    -0.5380 cc         1 1B7      -0.072300
     14 C20         -2.2610    -0.2570    -1.7100 cd         1 1B7      -0.213000
     15 C23         -4.0940    -1.2560    -0.6690 cc         1 1B7      -0.096300
     16 Cl1          6.3260    -1.5850     1.9430 cl         1 1B7      -0.234000
     17 C2           3.5180     0.6340     0.0430 ca         1 1B7      -0.042300
     18 N9           0.9780     1.5010    -0.9920 n2         1 1B7      -0.693900
     19 N13         -0.1500     0.3270     0.6790 nu         1 1B7      -0.842400
     20 C14         -1.3650     1.2060     0.7830 c3         1 1B7       0.059500
     21 S21         -2.9250    -1.2480    -3.0080 ss         1 1B7       0.113000
     22 C22         -4.1990    -1.8030    -1.9230 cd         1 1B7      -0.258000
     23 C24         -5.0580    -1.5510     0.4590 c3         1 1B7      -0.008100
     24 C26         -6.2120    -0.5280     0.5460 c3         1 1B7      -0.077400
     25 C27         -7.1980    -0.8230     1.6920 c3         1 1B7      -0.086100
     26 H1           5.6830     0.5780     0.1560 ha         1 1B7       0.120000
     27 H2           1.4410    -1.5310     1.7070 ha         1 1B7       0.130000
     28 H3           3.6150    -2.3910     2.4920 ha         1 1B7       0.121000
     29 H4           4.3580     1.8110    -1.5760 hc         1 1B7       0.056200
     30 H5           3.4870     2.7380    -0.3620 hc         1 1B7       0.056200
     31 H6           2.8270     3.3320    -3.1980 hc         1 1B7       0.031700
     32 H7           1.0760     3.0780    -3.1840 hc         1 1B7       0.031700
     33 H8           1.8580     3.9300    -1.8450 hc         1 1B7       0.031700
     34 H9           2.4050    -0.3680    -2.4230 hc         1 1B7       0.031700
     35 H10          1.3700     0.5760    -3.5010 hc         1 1B7       0.031700
     36 H11          3.1250     0.7810    -3.5540 hc         1 1B7       0.031700
     37 H12         -3.5010     1.0160     1.0010 hc         1 1B7       0.058700
     38 H13         -2.6050    -0.3710     1.5860 hc         1 1B7       0.058700
     39 H14         -1.3780     0.3400    -1.8990 h4         1 1B7       0.169000
     40 H15          0.0520    -0.2120     1.5140 hn         1 1B7       0.472000
     41 H16         -1.4120     1.8900    -0.0750 h1         1 1B7       0.079700
     42 H18         -4.9480    -2.4970    -2.2830 h4         1 1B7       0.132000
     43 H19         -5.4880    -2.5490     0.3110 hc         1 1B7       0.038700
     44 H20         -4.5340    -1.5950     1.4200 hc         1 1B7       0.038700
     45 H21         -5.8010     0.4800     0.6800 hc         1 1B7       0.047700
     46 H22         -6.7590    -0.5220    -0.4050 hc         1 1B7       0.047700
     47 H23         -7.9990    -0.0730     1.7090 hc         1 1B7       0.026367
     48 H24         -7.6570    -1.8110     1.5650 hc         1 1B7       0.026367
     49 H25         -6.6850    -0.7990     2.6610 hc         1 1B7       0.026367
     50 O17         -1.0380     1.6260     3.1360 o          1 1B7      -0.724000
     51 O16         -1.5520     3.3250     1.9180 o          1 1B7      -0.724000
@<TRIPOS>BOND
     1     1     5 ar  
     2     1    17 ar  
     3     1    26 1   
     4     2     3 ar  
     5     2     8 1   
     6     2    17 ar  
     7     3     4 ar  
     8     3    27 1   
     9     4     5 ar  
    10     4    28 1   
    11     5    16 1   
    12     6     7 1   
    13     6    17 1   
    14     6    29 1   
    15     6    30 1   
    16     7     9 1   
    17     7    10 1   
    18     7    18 1   
    19     8    18 2   
    20     8    19 1   
    21     9    31 1   
    22     9    32 1   
    23     9    33 1   
    24    10    34 1   
    25    10    35 1   
    26    10    36 1   
    27    11    20 1   
    28    11    50 1   
    29    11    51 1   
    30    12    13 1   
    31    12    20 1   
    32    12    37 1   
    33    12    38 1   
    34    13    14 2   
    35    13    15 1   
    36    14    21 1   
    37    14    39 1   
    38    15    22 2   
    39    15    23 1   
    40    19    20 1   
    41    19    40 1   
    42    20    41 1   
    43    21    22 1   
    44    22    42 1   
    45    23    24 1   
    46    23    43 1   
    47    23    44 1   
    48    24    25 1   
    49    24    45 1   
    50    24    46 1   
    51    25    47 1   
    52    25    48 1   
    53    25    49 1   
@<TRIPOS>SUBSTRUCTURE
     1 1B7         1 TEMP              0 ****  ****    0 ROOT
