@<TRIPOS>MOLECULE
1B7
   51    53     1     0     0
SMALL
bcc


@<TRIPOS>ATOM
      1 C1           4.4860    -0.2330     0.3100 ca         1 1B7      -0.133000
      2 C3           2.0960     0.0430     0.4070 ca         1 1B7      -0.158900
      3 C4           1.9880    -1.1820     1.0570 ca         1 1B7      -0.090000
      4 C5           3.1170    -1.9310     1.3530 ca         1 1B7      -0.140000
      5 C6           4.3580    -1.4400     0.9790 ca         1 1B7       0.031400
      6 C7           3.4090     1.8090    -0.7230 c6         1 1B7      -0.059100
      7 C8           2.1840     1.9580    -1.6330 c6         1 1B7       0.168200
      8 C10          0.9220     0.8750     0.0430 ce         1 1B7       0.696800
      9 C11          2.1500     3.3760    -2.1960 c3         1 1B7      -0.080100
     10 C12          2.2410     0.9580    -2.7920 c3         1 1B7      -0.080100
     11 C15         -1.4740     2.5610     1.6020 c          1 1B7       0.920600
     12 C18         -2.6630     0.5370     0.6590 c3         1 1B7      -0.008100
     13 C19         -2.7990    -0.5020    -0.4140 cc         1 1B7      -0.072300
     14 C20         -2.0130    -0.6020    -1.5230 cd         1 1B7      -0.086100
     15 C23         -3.8160    -1.5190    -0.3870 cc         1 1B7      -0.096300
     16 CL1          5.7800    -2.3660     1.3310 cl         1 1B7      -0.142400
     17 C2           3.3520     0.5100     0.0170 ca         1 1B7      -0.042300
     18 N9           0.9530     1.7600    -0.8810 n2         1 1B7      -0.693900
     19 N13         -0.2300     0.5920     0.7060 nu         1 1B7      -0.787200
     20 C14         -1.4110     1.4070     0.5660 c3         1 1B7       0.059500
     21 S21         -2.4840    -1.9010    -2.5400 ss         1 1B7      -0.176800
     22 C22         -3.7530    -2.3380    -1.4740 cd         1 1B7      -0.131100
     23 C24         -4.8550    -1.6380     0.6870 c3         1 1B7      -0.008100
     24 C26         -5.9930    -0.6270     0.5300 c3         1 1B7      -0.077400
     25 C27         -7.0330    -0.7460     1.6340 c3         1 1B7      -0.086100
     26 H1           5.4620     0.1260     0.0090 ha         1 1B7       0.138000
     27 H2           1.0200    -1.5840     1.3250 ha         1 1B7       0.148000
     28 H3           3.0270    -2.8820     1.8590 ha         1 1B7       0.139000
     29 H4           4.3350     1.8850    -1.2960 hc         1 1B7       0.056200
     30 H5           3.4140     2.6350    -0.0010 hc         1 1B7       0.056200
     31 H6           3.0510     3.5940    -2.7710 hc         1 1B7       0.031700
     32 H7           1.2900     3.5070    -2.8540 hc         1 1B7       0.031700
     33 H8           2.0740     4.1110    -1.3920 hc         1 1B7       0.031700
     34 H9           2.2940    -0.0730    -2.4360 hc         1 1B7       0.031700
     35 H10          1.3470     1.0490    -3.4100 hc         1 1B7       0.031700
     36 H11          3.1100     1.1380    -3.4280 hc         1 1B7       0.031700
     37 H12         -3.5330     1.1960     0.6330 hc         1 1B7       0.058700
     38 H13         -2.6940     0.0490     1.6410 hc         1 1B7       0.058700
     39 H14         -1.1700     0.0160    -1.8000 h4         1 1B7       0.187000
     40 H15         -0.1160     0.2000     1.6280 hn         1 1B7       0.416800
     41 H16         -1.3760     1.8650    -0.4240 h1         1 1B7       0.079700
     42 H18         -4.3950    -3.1770    -1.7000 h4         1 1B7       0.150000
     43 H19         -5.2740    -2.6480     0.6810 hc         1 1B7       0.038700
     44 H20         -4.3920    -1.5080     1.6710 hc         1 1B7       0.038700
     45 H21         -5.5870     0.3880     0.5170 hc         1 1B7       0.047700
     46 H22         -6.4650    -0.7770    -0.4450 hc         1 1B7       0.047700
     47 H23         -7.8400    -0.0250     1.4980 hc         1 1B7       0.026367
     48 H24         -7.4800    -1.7420     1.6520 hc         1 1B7       0.026367
     49 H25         -6.5900    -0.5670     2.6150 hc         1 1B7       0.026367
     50 O17         -0.5890     2.6020     2.4740 o          1 1B7      -0.829300
     51 O16         -2.4340     3.3460     1.4640 o          1 1B7      -0.829300
@<TRIPOS>BOND
     1     1     5 ar  
     2     1    17 ar  
     3     1    26 1   
     4     2     3 ar  
     5     2     8 1   
     6     2    17 ar  
     7     3     4 ar  
     8     3    27 1   
     9     4     5 ar  
    10     4    28 1   
    11     5    16 1   
    12     6     7 1   
    13     6    17 1   
    14     6    29 1   
    15     6    30 1   
    16     7     9 1   
    17     7    10 1   
    18     7    18 1   
    19     8    18 2   
    20     8    19 1   
    21     9    31 1   
    22     9    32 1   
    23     9    33 1   
    24    10    34 1   
    25    10    35 1   
    26    10    36 1   
    27    11    20 1   
    28    11    50 1   
    29    11    51 1   
    30    12    13 1   
    31    12    20 1   
    32    12    37 1   
    33    12    38 1   
    34    13    14 2   
    35    13    15 1   
    36    14    21 1   
    37    14    39 1   
    38    15    22 2   
    39    15    23 1   
    40    19    20 1   
    41    19    40 1   
    42    20    41 1   
    43    21    22 1   
    44    22    42 1   
    45    23    24 1   
    46    23    43 1   
    47    23    44 1   
    48    24    25 1   
    49    24    45 1   
    50    24    46 1   
    51    25    47 1   
    52    25    48 1   
    53    25    49 1   
@<TRIPOS>SUBSTRUCTURE
     1 1B7         1 TEMP              0 ****  ****    0 ROOT
