@<TRIPOS>MOLECULE
1B8
   49    52     1     0     0
SMALL
No Charge or Current Charge


@<TRIPOS>ATOM
      1 Cl1         -6.4180    -0.9340     0.7130 cl         1 1B8      -0.236000
      2 C2          -4.8240    -0.3300     0.2780 ca         1 1B8       0.122000
      3 C3          -4.0030    -1.0750    -0.5790 ca         1 1B8      -0.122000
      4 C4          -2.7290    -0.5950    -0.9310 ca         1 1B8      -0.073000
      5 C7          -4.3760     0.8960     0.7880 ca         1 1B8      -0.117000
      6 C6          -3.1000     1.3780     0.4430 ca         1 1B8      -0.043300
      7 C5          -2.2620     0.6430    -0.4240 ca         1 1B8      -0.156900
      8 C11         -2.6070     2.7150     0.9830 c6         1 1B8      -0.059100
      9 C10         -1.0560     2.7620     1.0640 c6         1 1B8       0.166200
     10 C29         -0.5660     4.2240     1.2650 c3         1 1B8      -0.079100
     11 C28         -0.5340     1.9150     2.2630 c3         1 1B8      -0.079100
     12 N9          -0.4290     2.2490    -0.1680 n2         1 1B8      -0.667900
     13 C8          -0.8970     1.1930    -0.7520 ce         1 1B8       0.688800
     14 N12         -0.1550     0.5490    -1.7380 nu         1 1B8      -0.837400
     15 C13          1.3360     0.5890    -1.9040 c3         1 1B8       0.066500
     16 C25          1.7840     0.7740    -3.4020 c          1 1B8       0.711000
     17 O26          2.5280     1.7080    -3.6740 o          1 1B8      -0.722000
     18 O27          1.3290     0.0150    -4.2490 o          1 1B8      -0.722000
     19 C14          1.9980    -0.6790    -1.2980 c3         1 1B8      -0.021100
     20 C15          1.7310    -0.8920     0.1780 cc         1 1B8       0.005700
     21 C16          0.8600    -1.8420     0.6690 cd         1 1B8      -0.179900
     22 Br1         -0.1740    -3.0940    -0.2980 br         1 1B8      -0.068100
     23 S17          0.7380    -1.8580     2.4250 ss         1 1B8       0.172000
     24 C18          1.9270    -0.5610     2.5020 cd         1 1B8      -0.248000
     25 C19          2.3550    -0.1600     1.2550 cc         1 1B8       0.005000
     26 C20          3.3470     0.9000     1.1690 cc         1 1B8      -0.136000
     27 C21          3.8570     1.5560     2.2560 cd         1 1B8      -0.162000
     28 N22          4.7690     2.4800     1.7320 na         1 1B8      -0.009200
     29 N23          4.8510     2.4190     0.3430 nd         1 1B8      -0.524800
     30 C24          3.9880     1.4660     0.0460 cc         1 1B8       0.283900
     31 H1          -4.3520    -2.0270    -0.9720 ha         1 1B8       0.120000
     32 H2          -2.1170    -1.1990    -1.5960 ha         1 1B8       0.134000
     33 H3          -5.0190     1.4710     1.4500 ha         1 1B8       0.119000
     34 H4          -2.9680     3.5100     0.3160 hc         1 1B8       0.056200
     35 H5          -3.0450     2.9200     1.9700 hc         1 1B8       0.056200
     36 H6          -0.9800     4.6600     2.1830 hc         1 1B8       0.031533
     37 H7           0.5280     4.2770     1.3390 hc         1 1B8       0.031533
     38 H8          -0.8700     4.8670     0.4300 hc         1 1B8       0.031533
     39 H9          -0.8130     0.8590     2.1660 hc         1 1B8       0.031533
     40 H10          0.5580     1.9640     2.3420 hc         1 1B8       0.031533
     41 H11         -0.9470     2.2750     3.2140 hc         1 1B8       0.031533
     42 H12         -0.6710    -0.1140    -2.3060 hn         1 1B8       0.466000
     43 H13          1.7250     1.4640    -1.3700 h1         1 1B8       0.080700
     44 H15          1.6440    -1.5460    -1.8660 hc         1 1B8       0.065200
     45 H16          3.0760    -0.6710    -1.4810 hc         1 1B8       0.065200
     46 H17          2.2260    -0.1890     3.4730 h4         1 1B8       0.138000
     47 H18          3.6650     1.4610     3.3180 h4         1 1B8       0.147000
     48 H19          5.3320     3.1400     2.2690 hn         1 1B8       0.361000
     49 H20          3.8750     1.2210    -0.9970 h4         1 1B8       0.046100
@<TRIPOS>BOND
     1     1     2 1   
     2     2     3 ar  
     3     2     5 ar  
     4     3     4 ar  
     5     3    31 1   
     6     4     7 ar  
     7     4    32 1   
     8     5     6 ar  
     9     5    33 1   
    10     6     7 ar  
    11     6     8 1   
    12     7    13 1   
    13     8     9 1   
    14     8    34 1   
    15     8    35 1   
    16     9    10 1   
    17     9    11 1   
    18     9    12 1   
    19    10    36 1   
    20    10    37 1   
    21    10    38 1   
    22    11    39 1   
    23    11    40 1   
    24    11    41 1   
    25    12    13 2   
    26    13    14 1   
    27    14    15 1   
    28    14    42 1   
    29    15    16 1   
    30    15    19 1   
    31    15    43 1   
    32    16    17 1   
    33    16    18 1   
    34    19    20 1   
    35    19    44 1   
    36    19    45 1   
    37    20    21 2   
    38    20    25 1   
    39    21    22 1   
    40    21    23 1   
    41    23    24 1   
    42    24    25 2   
    43    24    46 1   
    44    25    26 1   
    45    26    27 2   
    46    26    30 1   
    47    27    28 1   
    48    27    47 1   
    49    28    29 1   
    50    28    48 1   
    51    29    30 2   
    52    30    49 1   
@<TRIPOS>SUBSTRUCTURE
     1 1B8         1 TEMP              0 ****  ****    0 ROOT
