@<TRIPOS>MOLECULE
1B8
   49    52     1     0     0
SMALL
abcg2


@<TRIPOS>ATOM
      1 CL1         -6.5120    -0.7970     0.6790 cl         1 1B8      -0.236000
      2 C2          -4.8840    -0.2740     0.3970 ca         1 1B8       0.122000
      3 C3          -3.9120    -1.2130     0.0940 ca         1 1B8      -0.122000
      4 C4          -2.6130    -0.7790    -0.1250 ca         1 1B8      -0.073000
      5 C7          -4.5810     1.0750     0.4970 ca         1 1B8      -0.117000
      6 C6          -3.2800     1.5010     0.2750 ca         1 1B8      -0.043300
      7 C5          -2.2900     0.5730    -0.0530 ca         1 1B8      -0.156900
      8 C11         -2.8750     2.9380     0.3750 c6         1 1B8      -0.059100
      9 C10         -1.4460     3.0610     0.9170 c6         1 1B8       0.166200
     10 C29         -0.9840     4.5080     0.7700 c3         1 1B8      -0.079100
     11 C28         -1.3840     2.6630     2.3950 c3         1 1B8      -0.079100
     12 N9          -0.5250     2.2320     0.1550 n2         1 1B8      -0.667900
     13 C8          -0.9160     1.0930    -0.2660 ce         1 1B8       0.688800
     14 N12         -0.0520     0.2400    -0.8900 nu         1 1B8      -0.837400
     15 C13          1.2580     0.6940    -1.2760 c3         1 1B8       0.066500
     16 C25          1.2680     1.5680    -2.5550 c          1 1B8       0.711000
     17 O26          2.3310     2.1870    -2.7650 o          1 1B8      -0.722000
     18 O27          0.2520     1.5510    -3.2710 o          1 1B8      -0.722000
     19 C14          2.1760    -0.5190    -1.4810 c3         1 1B8      -0.021100
     20 C15          2.3350    -1.3130    -0.2250 cc         1 1B8       0.005700
     21 C16          1.7430    -2.5100     0.0450 cd         1 1B8      -0.179900
     22 BR1          0.6380    -3.5100    -1.0750 br         1 1B8      -0.068100
     23 S17          2.0600    -3.0970     1.6290 ss         1 1B8       0.172000
     24 C18          3.0160    -1.7190     1.9710 cd         1 1B8      -0.248000
     25 C19          3.0810    -0.8550     0.9180 cc         1 1B8       0.005000
     26 C20          3.8060     0.4120     0.9870 cc         1 1B8      -0.136000
     27 C21          3.7740     1.3210     2.0260 cd         1 1B8      -0.162000
     28 N22          4.6020     2.3190     1.6870 na         1 1B8      -0.009200
     29 N23          5.1790     2.1400     0.5050 nd         1 1B8      -0.524800
     30 C24          4.7050     0.9910     0.0660 cc         1 1B8       0.283900
     31 H1          -4.1540    -2.2650     0.0380 ha         1 1B8       0.120000
     32 H2          -1.8510    -1.5190    -0.3340 ha         1 1B8       0.134000
     33 H3          -5.3510     1.7930     0.7500 ha         1 1B8       0.119000
     34 H4          -2.9110     3.3880    -0.6250 hc         1 1B8       0.056200
     35 H5          -3.5790     3.4950     0.9970 hc         1 1B8       0.056200
     36 H6          -1.6220     5.1890     1.3360 hc         1 1B8       0.031533
     37 H7           0.0390     4.6220     1.1330 hc         1 1B8       0.031533
     38 H8          -1.0040     4.8160    -0.2770 hc         1 1B8       0.031533
     39 H9          -1.7150     1.6350     2.5560 hc         1 1B8       0.031533
     40 H10         -0.3570     2.7390     2.7580 hc         1 1B8       0.031533
     41 H11         -2.0080     3.3160     3.0070 hc         1 1B8       0.031533
     42 H12         -0.4850    -0.3720    -1.5650 hn         1 1B8       0.466000
     43 H13          1.6580     1.2890    -0.4550 h1         1 1B8       0.080700
     44 H15          1.7850    -1.1460    -2.2860 hc         1 1B8       0.065200
     45 H16          3.1450    -0.1570    -1.8220 hc         1 1B8       0.065200
     46 H17          3.5030    -1.6230     2.9300 h4         1 1B8       0.138000
     47 H18          3.2170     1.3250     2.9490 h4         1 1B8       0.147000
     48 H19          4.8060     3.1460     2.2250 hn         1 1B8       0.361000
     49 H20          5.0300     0.5990    -0.8860 h4         1 1B8       0.046100
@<TRIPOS>BOND
     1     1     2 1   
     2     2     3 ar  
     3     2     5 ar  
     4     3     4 ar  
     5     3    31 1   
     6     4     7 ar  
     7     4    32 1   
     8     5     6 ar  
     9     5    33 1   
    10     6     7 ar  
    11     6     8 1   
    12     7    13 1   
    13     8     9 1   
    14     8    34 1   
    15     8    35 1   
    16     9    10 1   
    17     9    11 1   
    18     9    12 1   
    19    10    36 1   
    20    10    37 1   
    21    10    38 1   
    22    11    39 1   
    23    11    40 1   
    24    11    41 1   
    25    12    13 2   
    26    13    14 1   
    27    14    15 1   
    28    14    42 1   
    29    15    16 1   
    30    15    19 1   
    31    15    43 1   
    32    16    17 1   
    33    16    18 1   
    34    19    20 1   
    35    19    44 1   
    36    19    45 1   
    37    20    21 2   
    38    20    25 1   
    39    21    22 1   
    40    21    23 1   
    41    23    24 1   
    42    24    25 2   
    43    24    46 1   
    44    25    26 1   
    45    26    27 2   
    46    26    30 1   
    47    27    28 1   
    48    27    47 1   
    49    28    29 1   
    50    28    48 1   
    51    29    30 2   
    52    30    49 1   
@<TRIPOS>SUBSTRUCTURE
     1 1B8         1 TEMP              0 ****  ****    0 ROOT
