@<TRIPOS>MOLECULE
1B9
   42    44     1     0     0
SMALL
bcc


@<TRIPOS>ATOM
      1 CL1         -6.3910    -1.7560    -0.1520 cl         1 1B9      -0.142400
      2 C6          -4.8180    -1.0310    -0.1930 ca         1 1B9       0.030400
      3 C5          -3.7800    -1.6920    -0.8300 ca         1 1B9      -0.141000
      4 C4          -2.5270    -1.1000    -0.8530 ca         1 1B9      -0.092000
      5 C1          -4.6210     0.1940     0.4270 ca         1 1B9      -0.133000
      6 C2          -3.3650     0.7820     0.3950 ca         1 1B9      -0.042300
      7 C3          -2.3140     0.1420    -0.2640 ca         1 1B9      -0.155900
      8 C7          -3.0770     2.0950     1.0530 c6         1 1B9      -0.059100
      9 C8          -1.6480     2.1160     1.6070 c6         1 1B9       0.168200
     10 C11         -1.3040     3.5350     2.0510 c3         1 1B9      -0.080100
     11 C12         -1.5140     1.1720     2.8060 c3         1 1B9      -0.080100
     12 N9          -0.6860     1.7390     0.5830 n2         1 1B9      -0.675900
     13 C10         -0.9920     0.8180    -0.2500 ce         1 1B9       0.696800
     14 N13         -0.0860     0.3540    -1.1500 nu         1 1B9      -0.792200
     15 C14          1.2150     0.9470    -1.2890 c3         1 1B9       0.069500
     16 C15          1.2540     2.1350    -2.2850 c          1 1B9       0.921600
     17 O17          0.2140     2.3910    -2.9170 o          1 1B9      -0.827800
     18 O16          2.3520     2.7210    -2.3690 o          1 1B9      -0.827800
     19 C18          2.2310    -0.1270    -1.7130 c3         1 1B9      -0.015100
     20 C19          2.2920    -1.2760    -0.7590 cc         1 1B9      -0.028300
     21 C23          2.9780    -1.2880     0.4940 cc         1 1B9      -0.028900
     22 BR2          4.0060     0.1550     1.1130 br         1 1B9      -0.069100
     23 C20          1.6480    -2.4610    -0.9460 cd         1 1B9      -0.125100
     24 S21          1.8650    -3.5540     0.3550 ss         1 1B9      -0.141800
     25 C22          2.8450    -2.4390     1.2050 cd         1 1B9      -0.103100
     26 H1          -3.9400    -2.6560    -1.2920 ha         1 1B9       0.137000
     27 H2          -1.7140    -1.6360    -1.3240 ha         1 1B9       0.144000
     28 H3          -5.4370     0.6870     0.9400 ha         1 1B9       0.138000
     29 H4          -3.1830     2.8960     0.3110 hc         1 1B9       0.055200
     30 H5          -3.8080     2.2980     1.8390 hc         1 1B9       0.055200
     31 H6          -1.9710     3.8760     2.8450 hc         1 1B9       0.032200
     32 H7          -0.2810     3.5780     2.4290 hc         1 1B9       0.032200
     33 H8          -1.3850     4.2340     1.2180 hc         1 1B9       0.032200
     34 H9          -1.7660     0.1420     2.5450 hc         1 1B9       0.032200
     35 H10         -0.4870     1.1780     3.1750 hc         1 1B9       0.032200
     36 H11         -2.1670     1.4810     3.6250 hc         1 1B9       0.032200
     37 H12         -0.4690    -0.0270    -2.0010 hn         1 1B9       0.411800
     38 H13          1.4970     1.3300    -0.3070 h1         1 1B9       0.084700
     39 H15          1.9670    -0.5060    -2.7040 hc         1 1B9       0.063200
     40 H16          3.2090     0.3460    -1.8110 hc         1 1B9       0.063200
     41 H17          1.0460    -2.7450    -1.7960 h4         1 1B9       0.162000
     42 H18          3.2700    -2.6880     2.1640 h4         1 1B9       0.166000
@<TRIPOS>BOND
     1     1     2 1   
     2     2     3 ar  
     3     2     5 ar  
     4     3     4 ar  
     5     3    26 1   
     6     4     7 ar  
     7     4    27 1   
     8     5     6 ar  
     9     5    28 1   
    10     6     7 ar  
    11     6     8 1   
    12     7    13 1   
    13     8     9 1   
    14     8    29 1   
    15     8    30 1   
    16     9    10 1   
    17     9    11 1   
    18     9    12 1   
    19    10    31 1   
    20    10    32 1   
    21    10    33 1   
    22    11    34 1   
    23    11    35 1   
    24    11    36 1   
    25    12    13 2   
    26    13    14 1   
    27    14    15 1   
    28    14    37 1   
    29    15    16 1   
    30    15    19 1   
    31    15    38 1   
    32    16    17 1   
    33    16    18 1   
    34    19    20 1   
    35    19    39 1   
    36    19    40 1   
    37    20    21 1   
    38    20    23 2   
    39    21    22 1   
    40    21    25 2   
    41    23    24 1   
    42    23    41 1   
    43    24    25 1   
    44    25    42 1   
@<TRIPOS>SUBSTRUCTURE
     1 1B9         1 TEMP              0 ****  ****    0 ROOT
