@<TRIPOS>MOLECULE
1B9
   42    44     1     0     0
SMALL
No Charge or Current Charge


@<TRIPOS>ATOM
      1 Cl1         -5.9580    -2.3160    -0.0480 cl         1 1B9      -0.234000
      2 C6          -4.5180    -1.3200    -0.2090 ca         1 1B9       0.122000
      3 C5          -3.5760    -1.6070    -1.2080 ca         1 1B9      -0.123000
      4 C4          -2.4230    -0.8140    -1.3400 ca         1 1B9      -0.074000
      5 C1          -4.3070    -0.2450     0.6660 ca         1 1B9      -0.115000
      6 C2          -3.1520     0.5470     0.5410 ca         1 1B9      -0.042300
      7 C3          -2.2050     0.2830    -0.4720 ca         1 1B9      -0.155900
      8 C7          -2.8980     1.7130     1.4880 c6         1 1B9      -0.059100
      9 C8          -1.3760     1.9680     1.6750 c6         1 1B9       0.168200
     10 C11         -1.1350     3.3430     2.3610 c3         1 1B9      -0.080100
     11 C12         -0.7340     0.8670     2.5710 c3         1 1B9      -0.080100
     12 N9          -0.6590     1.9840     0.3840 n2         1 1B9      -0.675900
     13 C10         -0.9730     1.1470    -0.5510 ce         1 1B9       0.696800
     14 N13         -0.1980     1.0600    -1.7010 nu         1 1B9      -0.847400
     15 C14          1.3000     1.1360    -1.7480 c3         1 1B9       0.069500
     16 C15          1.8470     1.9070    -3.0070 c          1 1B9       0.711000
     17 O17          1.5020     1.5320    -4.1230 o          1 1B9      -0.722500
     18 O16          2.5590     2.8870    -2.8250 o          1 1B9      -0.722500
     19 C18          1.9230    -0.2830    -1.6690 c3         1 1B9      -0.015100
     20 C19          1.5370    -1.0760    -0.4410 cc         1 1B9      -0.028300
     21 C23          2.0760    -0.8040     0.8530 cc         1 1B9      -0.028900
     22 Br2          3.3210     0.5650     1.2330 br         1 1B9      -0.069100
     23 C20          0.6670    -2.1380    -0.4340 cd         1 1B9      -0.252000
     24 S21          0.4560    -2.8210     1.1820 ss         1 1B9       0.148000
     25 C22          1.6090    -1.6490     1.8250 cd         1 1B9      -0.230000
     26 H1          -3.7370    -2.4470    -1.8790 ha         1 1B9       0.119000
     27 H2          -1.7030    -1.0690    -2.1140 ha         1 1B9       0.126000
     28 H3          -5.0380    -0.0320     1.4420 ha         1 1B9       0.120000
     29 H4          -3.3780     2.6090     1.0720 hc         1 1B9       0.055200
     30 H5          -3.3750     1.5330     2.4620 hc         1 1B9       0.055200
     31 H6          -1.6250     3.3900     3.3410 hc         1 1B9       0.032200
     32 H7          -0.0660     3.5350     2.5170 hc         1 1B9       0.032200
     33 H8          -1.5320     4.1670     1.7550 hc         1 1B9       0.032200
     34 H9          -0.8650    -0.1310     2.1390 hc         1 1B9       0.032200
     35 H10          0.3420     1.0320     2.7040 hc         1 1B9       0.032200
     36 H11         -1.1900     0.8510     3.5690 hc         1 1B9       0.032200
     37 H12         -0.6580     0.6040    -2.4810 hn         1 1B9       0.467000
     38 H13          1.6580     1.7050    -0.8810 h1         1 1B9       0.084700
     39 H15          1.6380    -0.8450    -2.5670 hc         1 1B9       0.063200
     40 H16          3.0150    -0.1910    -1.7140 hc         1 1B9       0.063200
     41 H17          0.1300    -2.5640    -1.2710 h4         1 1B9       0.144000
     42 H18          1.8590    -1.6550     2.8790 h4         1 1B9       0.148000
@<TRIPOS>BOND
     1     1     2 1   
     2     2     3 ar  
     3     2     5 ar  
     4     3     4 ar  
     5     3    26 1   
     6     4     7 ar  
     7     4    27 1   
     8     5     6 ar  
     9     5    28 1   
    10     6     7 ar  
    11     6     8 1   
    12     7    13 1   
    13     8     9 1   
    14     8    29 1   
    15     8    30 1   
    16     9    10 1   
    17     9    11 1   
    18     9    12 1   
    19    10    31 1   
    20    10    32 1   
    21    10    33 1   
    22    11    34 1   
    23    11    35 1   
    24    11    36 1   
    25    12    13 2   
    26    13    14 1   
    27    14    15 1   
    28    14    37 1   
    29    15    16 1   
    30    15    19 1   
    31    15    38 1   
    32    16    17 1   
    33    16    18 1   
    34    19    20 1   
    35    19    39 1   
    36    19    40 1   
    37    20    21 1   
    38    20    23 2   
    39    21    22 1   
    40    21    25 2   
    41    23    24 1   
    42    23    41 1   
    43    24    25 1   
    44    25    42 1   
@<TRIPOS>SUBSTRUCTURE
     1 1B9         1 TEMP              0 ****  ****    0 ROOT
