@<TRIPOS>MOLECULE
1BA
   41    42     1     0     0
SMALL
No Charge or Current Charge


@<TRIPOS>ATOM
      1 N1           0.0510    -0.0710    -0.4500 n7         1 1BA      -0.587400
      2 C4           5.1020     0.1780    -0.1460 ca         1 1BA      -0.065300
      3 C5           4.3130    -0.1770     0.9680 ca         1 1BA      -0.112500
      4 C6           2.9400     0.1220     0.9940 ca         1 1BA      -0.090500
      5 C7           2.3340     0.7800    -0.0920 ca         1 1BA      -0.100300
      6 C8           0.8460     1.1060    -0.0590 c3         1 1BA       0.186100
      7 C10         -3.7140    -0.3810     0.2850 ca         1 1BA      -0.194600
      8 C13         -6.4880     0.1790     0.1970 ca         1 1BA       0.162100
      9 C15         -4.2100     0.7000    -0.4860 ca         1 1BA      -0.032500
     10 C17          4.4920     0.8360    -1.2320 ca         1 1BA      -0.112500
     11 C1           7.3640     0.5930     0.9380 c3         1 1BA      -0.084100
     12 C3           6.8520    -1.6660    -0.1450 c3         1 1BA      -0.084100
     13 N2          -1.3750     0.0960    -0.3890 ns         1 1BA      -0.404300
     14 C9          -2.2350    -0.7120     0.3590 c          1 1BA       0.639700
     15 O1          -1.8140    -1.6400     1.0400 o          1 1BA      -0.566100
     16 C11         -4.6360    -1.1710     1.0100 ca         1 1BA      -0.032500
     17 C12         -6.0120    -0.8910     0.9640 ca         1 1BA      -0.188000
     18 O2          -7.8240     0.4400     0.1610 oh         1 1BA      -0.527100
     19 C14         -5.5890     0.9730    -0.5270 ca         1 1BA      -0.188000
     20 C16          3.1180     1.1350    -1.2060 ca         1 1BA      -0.090500
     21 HN1          0.3750    -0.4320    -1.3620 hn         1 1BA       0.418000
     22 H5           4.7620    -0.6860     1.8170 ha         1 1BA       0.112500
     23 H6           2.3450    -0.1600     1.8600 ha         1 1BA       0.119000
     24 H81          0.5730     1.4310     0.9530 h1         1 1BA       0.043200
     25 H82          0.6440     1.9460    -0.7380 h1         1 1BA       0.043200
     26 H15         -3.5440     1.3400    -1.0600 ha         1 1BA       0.123500
     27 H17          5.0800     1.1190    -2.1020 ha         1 1BA       0.112500
     28 H11A         8.4430     0.4180     0.8470 hc         1 1BA       0.035533
     29 H12A         7.1890     1.6730     0.8770 hc         1 1BA       0.035533
     30 H13          7.0450     0.2480     1.9280 hc         1 1BA       0.035533
     31 H2           7.0130     0.2180    -1.1340 hc         1 1BA       0.047700
     32 H31          6.5120    -2.1010     0.8030 hc         1 1BA       0.035533
     33 H32          6.3180    -2.1650    -0.9620 hc         1 1BA       0.035533
     34 H33          7.9210    -1.8830    -0.2550 hc         1 1BA       0.035533
     35 HN2         -1.8300     0.8250    -0.9320 hn         1 1BA       0.299500
     36 H11         -4.2890    -2.0090     1.6130 ha         1 1BA       0.123500
     37 H12         -6.7090    -1.5070     1.5260 ha         1 1BA       0.125000
     38 HO2         -7.9710     1.2170    -0.4200 ho         1 1BA       0.468000
     39 H14         -5.9500     1.8070    -1.1250 ha         1 1BA       0.125000
     40 H16          2.6640     1.6440    -2.0540 ha         1 1BA       0.119000
     41 C2           6.5980    -0.1430    -0.1840 c3         1 1BA      -0.017400
@<TRIPOS>BOND
     1     1     6 1   
     2     1    13 1   
     3     1    21 1   
     4     2     3 ar  
     5     2    10 ar  
     6     2    41 1   
     7     3     4 ar  
     8     3    22 1   
     9     4     5 ar  
    10     4    23 1   
    11     5     6 1   
    12     5    20 ar  
    13     6    24 1   
    14     6    25 1   
    15     7     9 ar  
    16     7    14 1   
    17     7    16 ar  
    18     8    17 ar  
    19     8    18 1   
    20     8    19 ar  
    21     9    19 ar  
    22     9    26 1   
    23    10    20 ar  
    24    10    27 1   
    25    11    28 1   
    26    11    29 1   
    27    11    30 1   
    28    11    41 1   
    29    12    32 1   
    30    12    33 1   
    31    12    34 1   
    32    12    41 1   
    33    13    14 1   
    34    13    35 1   
    35    14    15 2   
    36    16    17 ar  
    37    16    36 1   
    38    17    37 1   
    39    18    38 1   
    40    19    39 1   
    41    20    40 1   
    42    31    41 1   
@<TRIPOS>SUBSTRUCTURE
     1 1BA         1 TEMP              0 ****  ****    0 ROOT
