@<TRIPOS>MOLECULE
1BA
   41    42     1     0     0
SMALL
abcg2


@<TRIPOS>ATOM
      1 N1           0.0440    -0.3010    -0.5870 n7         1 1BA      -0.587400
      2 C4           5.0050     0.1900    -0.1720 ca         1 1BA      -0.065300
      3 C5           4.1150    -0.2990     0.7880 ca         1 1BA      -0.112500
      4 C6           2.7560    -0.0540     0.6940 ca         1 1BA      -0.090500
      5 C7           2.2360     0.6970    -0.3600 ca         1 1BA      -0.100300
      6 C8           0.7600     0.9610    -0.4480 c3         1 1BA       0.186100
      7 C10         -3.5260    -0.2870     0.3630 ca         1 1BA      -0.194600
      8 C13         -6.2720     0.2630     0.3370 ca         1 1BA       0.162100
      9 C15         -4.0170     0.8650    -0.2470 ca         1 1BA      -0.032500
     10 C17          4.4810     0.9290    -1.2250 ca         1 1BA      -0.112500
     11 C1           7.0760     0.6050     1.1790 c3         1 1BA      -0.084100
     12 C3           6.8080    -1.5620    -0.0770 c3         1 1BA      -0.084100
     13 N2          -1.3250    -0.1400    -0.5810 ns         1 1BA      -0.404300
     14 C9          -2.0760    -0.6280     0.4310 c          1 1BA       0.639700
     15 O1          -1.6250    -1.3120     1.3350 o          1 1BA      -0.566100
     16 C11         -4.4350    -1.1470     0.9790 ca         1 1BA      -0.032500
     17 C12         -5.7910    -0.8890     0.9620 ca         1 1BA      -0.188000
     18 O2          -7.5980     0.4730     0.3470 oh         1 1BA      -0.527100
     19 C14         -5.3740     1.1430    -0.2610 ca         1 1BA      -0.188000
     20 C16          3.1150     1.1770    -1.3210 ca         1 1BA      -0.090500
     21 HN1          0.3160    -0.7660    -1.4440 hn         1 1BA       0.418000
     22 H5           4.4870    -0.8780     1.6260 ha         1 1BA       0.112500
     23 H6           2.0870    -0.4490     1.4500 ha         1 1BA       0.119000
     24 H81          0.4100     1.4360     0.4720 h1         1 1BA       0.043200
     25 H82          0.5570     1.6610    -1.2700 h1         1 1BA       0.043200
     26 H15         -3.3480     1.5840    -0.7020 ha         1 1BA       0.123500
     27 H17          5.1450     1.3200    -1.9880 ha         1 1BA       0.112500
     28 H11A         8.1560     0.4560     1.2250 hc         1 1BA       0.035533
     29 H12A         6.8860     1.6790     1.1770 hc         1 1BA       0.035533
     30 H13          6.6450     0.1920     2.0930 hc         1 1BA       0.035533
     31 H2           6.9640     0.3830    -0.9410 hc         1 1BA       0.047700
     32 H31          6.3940    -2.0690     0.7960 hc         1 1BA       0.035533
     33 H32          6.4070    -2.0460    -0.9690 hc         1 1BA       0.035533
     34 H33          7.8880    -1.7220    -0.0670 hc         1 1BA       0.035533
     35 HN2         -1.7620     0.3550    -1.3460 hn         1 1BA       0.299500
     36 H11         -4.0780    -2.0420     1.4720 ha         1 1BA       0.123500
     37 H12         -6.4850    -1.5740     1.4330 ha         1 1BA       0.125000
     38 HO2         -7.8170     1.2860    -0.1220 ho         1 1BA       0.468000
     39 H14         -5.7290     2.0530    -0.7320 ha         1 1BA       0.125000
     40 H16          2.7340     1.7530    -2.1570 ha         1 1BA       0.119000
     41 C2           6.4900    -0.0670    -0.0630 c3         1 1BA      -0.017400
@<TRIPOS>BOND
     1     1     6 1   
     2     1    13 1   
     3     1    21 1   
     4     2     3 ar  
     5     2    10 ar  
     6     2    41 1   
     7     3     4 ar  
     8     3    22 1   
     9     4     5 ar  
    10     4    23 1   
    11     5     6 1   
    12     5    20 ar  
    13     6    24 1   
    14     6    25 1   
    15     7     9 ar  
    16     7    14 1   
    17     7    16 ar  
    18     8    17 ar  
    19     8    18 1   
    20     8    19 ar  
    21     9    19 ar  
    22     9    26 1   
    23    10    20 ar  
    24    10    27 1   
    25    11    28 1   
    26    11    29 1   
    27    11    30 1   
    28    11    41 1   
    29    12    32 1   
    30    12    33 1   
    31    12    34 1   
    32    12    41 1   
    33    13    14 1   
    34    13    35 1   
    35    14    15 2   
    36    16    17 ar  
    37    16    36 1   
    38    17    37 1   
    39    18    38 1   
    40    19    39 1   
    41    20    40 1   
    42    31    41 1   
@<TRIPOS>SUBSTRUCTURE
     1 1BA         1 TEMP              0 ****  ****    0 ROOT
