@<TRIPOS>MOLECULE
1BB
   53    56     1     0     0
SMALL
No Charge or Current Charge


@<TRIPOS>ATOM
      1 Cl1         -6.5030    -0.1920     0.4470 cl         1 1BB      -0.195000
      2 C1          -4.7490    -0.0500     0.4440 ca         1 1BB       0.139000
      3 C2          -4.1210     0.8900     1.2740 ca         1 1BB      -0.106000
      4 C3          -2.7190     0.9990     1.2770 ca         1 1BB      -0.036300
      5 C4          -1.9330     0.1840     0.4350 ca         1 1BB      -0.184900
      6 C5          -2.5790    -0.7730    -0.3850 ca         1 1BB      -0.067000
      7 C6          -3.9800    -0.8840    -0.3800 ca         1 1BB      -0.114000
      8 C9          -2.0160     2.0030     2.1840 c6         1 1BB      -0.060100
      9 C10         -0.5910     1.5180     2.5690 c6         1 1BB       0.165200
     10 N11          0.1550     1.0320     1.3950 n2         1 1BB      -0.703900
     11 C12         -0.4390     0.3270     0.4910 ce         1 1BB       0.684800
     12 N13          0.3210    -0.3000    -0.4790 nu         1 1BB      -0.855400
     13 C14          1.5700    -1.0740    -0.1990 c3         1 1BB       0.196200
     14 C15          1.6150    -2.3080    -1.1440 c3         1 1BB      -0.040100
     15 C27          0.2340     2.6790     3.1900 c3         1 1BB      -0.082600
     16 C28         -0.6500     0.3570     3.6070 c3         1 1BB      -0.082600
     17 C7           2.8550    -0.2130    -0.2220 cc         1 1BB       0.653200
     18 N8           2.8290     1.0530     0.3590 na         1 1BB      -0.730200
     19 C11          3.9410     1.9150     0.3850 cc         1 1BB       0.086000
     20 C13          5.0850     1.4160    -0.1850 cd         1 1BB      -0.184900
     21 C19          5.1550     0.0900    -0.7830 c          1 1BB       0.724700
     22 N24          3.9850    -0.6370    -0.7440 nd         1 1BB      -0.700100
     23 O25          6.1480    -0.4030    -1.2980 o          1 1BB      -0.523100
     24 C26          0.3260    -3.1330    -1.1450 ca         1 1BB      -0.080300
     25 C29         -0.3540    -3.3820    -2.3540 ca         1 1BB      -0.103500
     26 C30         -1.5520    -4.1180    -2.3580 ca         1 1BB      -0.106000
     27 C31         -2.0770    -4.6130    -1.1530 ca         1 1BB      -0.104000
     28 C32         -1.4000    -4.3780     0.0550 ca         1 1BB      -0.106000
     29 C33         -0.2010    -3.6440     0.0590 ca         1 1BB      -0.103500
     30 C8           6.2850     2.1680    -0.2280 ch         1 1BB       0.308700
     31 N9           7.2570     2.8130    -0.2460 n1         1 1BB      -0.448000
     32 H1          -4.7230     1.5270     1.9170 ha         1 1BB       0.133000
     33 H2          -2.0130    -1.4450    -1.0240 ha         1 1BB       0.126000
     34 H3          -4.4690    -1.6200    -1.0130 ha         1 1BB       0.133000
     35 H4          -1.9510     2.9630     1.6550 hc         1 1BB       0.067200
     36 H5          -2.6100     2.1900     3.0900 hc         1 1BB       0.067200
     37 H6          -0.2400    -0.6400    -1.2520 hn         1 1BB       0.492000
     38 H7           1.5060    -1.4630     0.8250 h1         1 1BB       0.076700
     39 H8           1.8440    -1.9620    -2.1600 hc         1 1BB       0.065700
     40 H9           2.4520    -2.9520    -0.8470 hc         1 1BB       0.065700
     41 H10         -0.2530     3.0760     4.0880 hc         1 1BB       0.039700
     42 H11          1.2400     2.3500     3.4770 hc         1 1BB       0.039700
     43 H12          0.3480     3.5090     2.4830 hc         1 1BB       0.039700
     44 H13         -1.2030    -0.5070     3.2190 hc         1 1BB       0.039700
     45 H14          0.3540     0.0090     3.8770 hc         1 1BB       0.039700
     46 H15         -1.1490     0.6760     4.5300 hc         1 1BB       0.039700
     47 H16          1.9250     1.3220     0.7610 hn         1 1BB       0.517000
     48 H17          3.8410     2.8980     0.8450 h4         1 1BB       0.214000
     49 H18          0.0390    -3.0000    -3.2940 ha         1 1BB       0.108500
     50 H19         -2.0740    -4.3020    -3.2940 ha         1 1BB       0.114500
     51 H20         -3.0050    -5.1810    -1.1550 ha         1 1BB       0.115000
     52 H21         -1.8030    -4.7640     0.9880 ha         1 1BB       0.114500
     53 H22          0.3120    -3.4710     1.0020 ha         1 1BB       0.108500
@<TRIPOS>BOND
     1     1     2 1   
     2     2     3 ar  
     3     2     7 ar  
     4     3     4 ar  
     5     3    32 1   
     6     4     5 ar  
     7     4     8 1   
     8     5     6 ar  
     9     5    11 1   
    10     6     7 ar  
    11     6    33 1   
    12     7    34 1   
    13     8     9 1   
    14     8    35 1   
    15     8    36 1   
    16     9    10 1   
    17     9    15 1   
    18     9    16 1   
    19    10    11 2   
    20    11    12 1   
    21    12    13 1   
    22    12    37 1   
    23    13    14 1   
    24    13    17 1   
    25    13    38 1   
    26    14    24 1   
    27    14    39 1   
    28    14    40 1   
    29    15    41 1   
    30    15    42 1   
    31    15    43 1   
    32    16    44 1   
    33    16    45 1   
    34    16    46 1   
    35    17    18 1   
    36    17    22 2   
    37    18    19 1   
    38    18    47 1   
    39    19    20 2   
    40    19    48 1   
    41    20    21 1   
    42    20    30 1   
    43    21    22 1   
    44    21    23 2   
    45    24    25 ar  
    46    24    29 ar  
    47    25    26 ar  
    48    25    49 1   
    49    26    27 ar  
    50    26    50 1   
    51    27    28 ar  
    52    27    51 1   
    53    28    29 ar  
    54    28    52 1   
    55    29    53 1   
    56    30    31 3   
@<TRIPOS>SUBSTRUCTURE
     1 1BB         1 TEMP              0 ****  ****    0 ROOT
