@<TRIPOS>MOLECULE
1BB
   53    56     1     0     0
SMALL
bcc


@<TRIPOS>ATOM
      1 CL1         -6.0860     1.9540    -0.9980 cl         1 1BB      -0.103400
      2 C1          -4.5060     1.3830    -0.5810 ca         1 1BB       0.047400
      3 C2          -3.6960     2.1660     0.2280 ca         1 1BB      -0.124000
      4 C3          -2.4290     1.7140     0.5670 ca         1 1BB      -0.036300
      5 C4          -1.9850     0.4810     0.0850 ca         1 1BB      -0.184900
      6 C5          -2.8190    -0.2990    -0.7090 ca         1 1BB      -0.085000
      7 C6          -4.0840     0.1490    -1.0520 ca         1 1BB      -0.132000
      8 C9          -1.4900     2.5000     1.4270 c6         1 1BB      -0.060100
      9 C10         -0.6470     1.5710     2.3110 c6         1 1BB       0.165200
     10 N11         -0.0130     0.5330     1.5090 n2         1 1BB      -0.703900
     11 C12         -0.6390     0.0490     0.5110 ce         1 1BB       0.684800
     12 N13         -0.0680    -0.9760    -0.2010 nu         1 1BB      -0.800200
     13 C14          1.2470    -1.4060     0.1750 c3         1 1BB       0.196200
     14 C15          1.7300    -2.5230    -0.7610 c3         1 1BB      -0.040100
     15 C27          0.4650     2.3780     2.9730 c3         1 1BB      -0.082600
     16 C28         -1.5090     0.9100     3.3900 c3         1 1BB      -0.082600
     17 C7           2.2390    -0.2620     0.1470 cc         1 1BB       0.653200
     18 N8           3.0930    -0.1630     1.1950 na         1 1BB      -0.675000
     19 C11          4.0270     0.8010     1.2310 cc         1 1BB       0.136000
     20 C13          4.1110     1.6720     0.1940 cd         1 1BB      -0.184900
     21 C19          3.1960     1.5480    -0.9400 c          1 1BB       0.724700
     22 N24          2.2840     0.5180    -0.8750 nd         1 1BB      -0.700100
     23 O25          3.2350     2.3080    -1.8920 o          1 1BB      -0.523100
     24 C26          0.8050    -3.7080    -0.7410 ca         1 1BB      -0.080300
     25 C29         -0.1190    -3.9080    -1.7620 ca         1 1BB      -0.121500
     26 C30         -0.9960    -4.9840    -1.7260 ca         1 1BB      -0.124000
     27 C31         -0.9600    -5.8760    -0.6640 ca         1 1BB      -0.122000
     28 C32         -0.0380    -5.6880     0.3590 ca         1 1BB      -0.124000
     29 C33          0.8370    -4.6120     0.3190 ca         1 1BB      -0.121500
     30 C8           5.0770     2.7080     0.1810 ch         1 1BB       0.219500
     31 N9           5.8530     3.5600     0.1560 n1         1 1BB      -0.358800
     32 H1          -4.0480     3.1210     0.5970 ha         1 1BB       0.151000
     33 H2          -2.5030    -1.2740    -1.0550 ha         1 1BB       0.144000
     34 H3          -4.7310    -0.4570    -1.6710 ha         1 1BB       0.151000
     35 H4          -0.8180     3.0750     0.7800 hc         1 1BB       0.067200
     36 H5          -2.0340     3.2230     2.0390 hc         1 1BB       0.067200
     37 H6          -0.2680    -0.9920    -1.1900 hn         1 1BB       0.436800
     38 H7           1.2030    -1.7960     1.1970 h1         1 1BB       0.076700
     39 H8           1.8180    -2.1240    -1.7750 hc         1 1BB       0.065700
     40 H9           2.7350    -2.8210    -0.4530 hc         1 1BB       0.065700
     41 H10          0.0530     3.1520     3.6220 hc         1 1BB       0.039700
     42 H11          1.1030     1.7290     3.5740 hc         1 1BB       0.039700
     43 H12          1.0930     2.8640     2.2240 hc         1 1BB       0.039700
     44 H13         -2.3060     0.3030     2.9580 hc         1 1BB       0.039700
     45 H14         -0.8980     0.2610     4.0180 hc         1 1BB       0.039700
     46 H15         -1.9710     1.6610     4.0340 hc         1 1BB       0.039700
     47 H16          2.9910    -0.7830     1.9860 hn         1 1BB       0.461800
     48 H17          4.6670     0.8350     2.1000 h4         1 1BB       0.164000
     49 H18         -0.1510    -3.2190    -2.5980 ha         1 1BB       0.126500
     50 H19         -1.7070    -5.1250    -2.5300 ha         1 1BB       0.132500
     51 H20         -1.6410    -6.7160    -0.6340 ha         1 1BB       0.133000
     52 H21          0.0010    -6.3820     1.1890 ha         1 1BB       0.132500
     53 H22          1.5580    -4.4760     1.1170 ha         1 1BB       0.126500
@<TRIPOS>BOND
     1     1     2 1   
     2     2     3 ar  
     3     2     7 ar  
     4     3     4 ar  
     5     3    32 1   
     6     4     5 ar  
     7     4     8 1   
     8     5     6 ar  
     9     5    11 1   
    10     6     7 ar  
    11     6    33 1   
    12     7    34 1   
    13     8     9 1   
    14     8    35 1   
    15     8    36 1   
    16     9    10 1   
    17     9    15 1   
    18     9    16 1   
    19    10    11 2   
    20    11    12 1   
    21    12    13 1   
    22    12    37 1   
    23    13    14 1   
    24    13    17 1   
    25    13    38 1   
    26    14    24 1   
    27    14    39 1   
    28    14    40 1   
    29    15    41 1   
    30    15    42 1   
    31    15    43 1   
    32    16    44 1   
    33    16    45 1   
    34    16    46 1   
    35    17    18 1   
    36    17    22 2   
    37    18    19 1   
    38    18    47 1   
    39    19    20 2   
    40    19    48 1   
    41    20    21 1   
    42    20    30 1   
    43    21    22 1   
    44    21    23 2   
    45    24    25 ar  
    46    24    29 ar  
    47    25    26 ar  
    48    25    49 1   
    49    26    27 ar  
    50    26    50 1   
    51    27    28 ar  
    52    27    51 1   
    53    28    29 ar  
    54    28    52 1   
    55    29    53 1   
    56    30    31 3   
@<TRIPOS>SUBSTRUCTURE
     1 1BB         1 TEMP              0 ****  ****    0 ROOT
