@<TRIPOS>MOLECULE
1BC
   65    69     1     0     0
SMALL
abcg2


@<TRIPOS>ATOM
      1 CL1         -6.7360     0.0960     0.3600 cl         1 1BC      -0.205000
      2 C1          -5.0100     0.1430     0.5050 ca         1 1BC       0.135000
      3 C6          -4.2660     0.8260    -0.4460 ca         1 1BC      -0.118000
      4 C5          -2.8890     0.8510    -0.3190 ca         1 1BC      -0.047000
      5 C4          -2.2550     0.2030     0.7380 ca         1 1BC      -0.133900
      6 C12         -0.7740     0.2410     0.8490 ce         1 1BC       0.712800
      7 N11         -0.2320    -0.6010     1.7700 nu         1 1BC      -0.933400
      8 C10         -0.9640    -1.7050     2.3910 c6         1 1BC       0.252200
      9 C28         -0.1730    -2.1560     3.6130 c3         1 1BC      -0.106600
     10 C27         -1.1220    -2.8720     1.4150 c3         1 1BC      -0.106600
     11 C9          -2.3240    -1.1630     2.8240 c6         1 1BC      -0.036100
     12 C3          -3.0170    -0.4820     1.6840 ca         1 1BC      -0.049300
     13 C2          -4.4020    -0.5100     1.5620 ca         1 1BC      -0.115000
     14 N13         -0.1530     1.0800     0.1110 n2         1 1BC      -0.673900
     15 C14          1.2700     1.1660     0.1050 c3         1 1BC       0.120200
     16 C15          1.8150     0.5210    -1.1940 c3         1 1BC      -0.010100
     17 C11          1.5190    -0.9440    -1.2930 cc         1 1BC      -0.099300
     18 C13          2.1980    -1.9720    -0.5490 cc         1 1BC      -0.009000
     19 C16          1.7580    -3.2210    -0.8860 cd         1 1BC      -0.261000
     20 S17          0.5100    -3.1680    -2.0510 ss         1 1BC       0.203000
     21 C18          0.5590    -1.4490    -2.1250 cd         1 1BC      -0.182300
     22 C19         -0.3410    -0.7130    -3.0650 c3         1 1BC      -0.015100
     23 C20          0.2870    -0.4830    -4.4420 c3         1 1BC      -0.072400
     24 C21         -0.6330     0.2980    -5.3680 c3         1 1BC      -0.090100
     25 C23          3.1910    -1.7610     0.5050 cc         1 1BC      -0.145000
     26 C24          3.3710    -2.5660     1.6160 cd         1 1BC      -0.174000
     27 N25          4.3850    -2.0400     2.3150 na         1 1BC      -0.002200
     28 N26          4.8880    -0.9460     1.7590 nd         1 1BC      -0.521800
     29 C29          4.1770    -0.7600     0.6630 cc         1 1BC       0.259900
     30 C30          1.7360     2.5970     0.1480 ce         1 1BC       0.680300
     31 N31          0.8950     3.5630     0.1480 nf         1 1BC      -0.632100
     32 C32          1.3710     4.8670     0.1500 c          1 1BC       0.695500
     33 C33          2.8220     5.0750    -0.1820 c6         1 1BC      -0.332700
     34 C34          3.6310     3.8550     0.0390 c2         1 1BC       0.485200
     35 N35          3.1330     2.6950     0.2040 ne         1 1BC      -0.708000
     36 O36          0.6240     5.7890     0.3800 o          1 1BC      -0.486100
     37 H1          -4.7510     1.3250    -1.2730 ha         1 1BC       0.132000
     38 H2          -2.2890     1.3760    -1.0490 ha         1 1BC       0.148000
     39 H3           0.7660    -0.7360     1.7320 hn         1 1BC       0.479000
     40 H4          -0.0520    -1.3430     4.3300 hc         1 1BC       0.043200
     41 H5          -0.6830    -2.9790     4.1130 hc         1 1BC       0.043200
     42 H6           0.8210    -2.5100     3.3290 hc         1 1BC       0.043200
     43 H7          -0.1440    -3.2240     1.0850 hc         1 1BC       0.043200
     44 H8          -1.6480    -3.7040     1.8850 hc         1 1BC       0.043200
     45 H9          -1.6760    -2.5790     0.5220 hc         1 1BC       0.043200
     46 H10         -2.9380    -1.9740     3.2200 hc         1 1BC       0.062700
     47 H11         -2.1790    -0.4440     3.6380 hc         1 1BC       0.062700
     48 H12         -4.9960    -1.0450     2.2920 ha         1 1BC       0.127000
     49 H13          1.7860     0.6920     0.9550 h1         1 1BC       0.058700
     50 H14          1.3630     1.0480    -2.0350 hc         1 1BC       0.061700
     51 H15          2.8880     0.6920    -1.2730 hc         1 1BC       0.061700
     52 H16          2.1020    -4.1660    -0.4950 h4         1 1BC       0.147000
     53 H17         -1.2820    -1.2580    -3.1820 hc         1 1BC       0.059700
     54 H18         -0.6100     0.2450    -2.6150 hc         1 1BC       0.059700
     55 H19          1.2330     0.0510    -4.3220 hc         1 1BC       0.041700
     56 H20          0.5380    -1.4480    -4.8900 hc         1 1BC       0.041700
     57 H21         -0.1650     0.4720    -6.3370 hc         1 1BC       0.033700
     58 H22         -1.5680    -0.2360    -5.5430 hc         1 1BC       0.033700
     59 H23         -0.8840     1.2710    -4.9420 hc         1 1BC       0.033700
     60 H24          2.8540    -3.4540     1.9450 h4         1 1BC       0.153000
     61 H25          4.7640    -2.3840     3.1820 hn         1 1BC       0.372000
     62 H26          4.3930     0.0810     0.0250 h4         1 1BC       0.051100
     63 H27          2.9090     5.3460    -1.2440 hc         1 1BC       0.104200
     64 H28          3.2390     5.9230     0.3640 hc         1 1BC       0.104200
     65 H29          4.7130     3.9520     0.0560 h4         1 1BC       0.032800
@<TRIPOS>BOND
     1     1     2 1   
     2     2     3 ar  
     3     2    13 ar  
     4     3     4 ar  
     5     3    37 1   
     6     4     5 ar  
     7     4    38 1   
     8     5     6 1   
     9     5    12 ar  
    10     6     7 1   
    11     6    14 2   
    12     7     8 1   
    13     7    39 1   
    14     8     9 1   
    15     8    10 1   
    16     8    11 1   
    17     9    40 1   
    18     9    41 1   
    19     9    42 1   
    20    10    43 1   
    21    10    44 1   
    22    10    45 1   
    23    11    12 1   
    24    11    46 1   
    25    11    47 1   
    26    12    13 ar  
    27    13    48 1   
    28    14    15 1   
    29    15    16 1   
    30    15    30 1   
    31    15    49 1   
    32    16    17 1   
    33    16    50 1   
    34    16    51 1   
    35    17    18 1   
    36    17    21 2   
    37    18    19 2   
    38    18    25 1   
    39    19    20 1   
    40    19    52 1   
    41    20    21 1   
    42    21    22 1   
    43    22    23 1   
    44    22    53 1   
    45    22    54 1   
    46    23    24 1   
    47    23    55 1   
    48    23    56 1   
    49    24    57 1   
    50    24    58 1   
    51    24    59 1   
    52    25    26 2   
    53    25    29 1   
    54    26    27 1   
    55    26    60 1   
    56    27    28 1   
    57    27    61 1   
    58    28    29 2   
    59    29    62 1   
    60    30    31 2   
    61    30    35 1   
    62    31    32 1   
    63    32    33 1   
    64    32    36 2   
    65    33    34 1   
    66    33    63 1   
    67    33    64 1   
    68    34    35 2   
    69    34    65 1   
@<TRIPOS>SUBSTRUCTURE
     1 1BC         1 TEMP              0 ****  ****    0 ROOT
