@<TRIPOS>MOLECULE
1BC
   65    69     1     0     0
SMALL
No Charge or Current Charge


@<TRIPOS>ATOM
      1 Cl1         -6.5760     1.5740     2.7170 cl         1 1BC      -0.205000
      2 C1          -4.9850     1.1830     2.0780 ca         1 1BC       0.135000
      3 C6          -4.3930     2.0160     1.1170 ca         1 1BC      -0.118000
      4 C5          -3.1190     1.7070     0.6070 ca         1 1BC      -0.047000
      5 C4          -2.4320     0.5550     1.0520 ca         1 1BC      -0.133900
      6 C12         -1.0650     0.2120     0.5390 ce         1 1BC       0.712800
      7 N11         -0.5660    -1.0510     0.8070 nu         1 1BC      -0.933400
      8 C10         -1.3520    -2.1120     1.4320 c6         1 1BC       0.252200
      9 C28         -0.3760    -3.1440     2.0560 c3         1 1BC      -0.106600
     10 C27         -2.1800    -2.8270     0.3290 c3         1 1BC      -0.106600
     11 C9          -2.2770    -1.5020     2.5230 c6         1 1BC      -0.036100
     12 C3          -3.0360    -0.2730     2.0230 ca         1 1BC      -0.049300
     13 C2          -4.3080     0.0420     2.5350 ca         1 1BC      -0.115000
     14 N13         -0.4240     1.0040    -0.2440 n2         1 1BC      -0.673900
     15 C14          1.0390     1.2460    -0.0790 c3         1 1BC       0.120200
     16 C15          1.8260     0.5660    -1.2360 c3         1 1BC      -0.010100
     17 C11          1.8200    -0.9490    -1.1810 cc         1 1BC      -0.099300
     18 C13          2.6410    -1.7390    -0.2970 cc         1 1BC      -0.009000
     19 C16          2.4480    -3.0920    -0.4500 cd         1 1BC      -0.261000
     20 S17          1.2630    -3.4680    -1.6940 ss         1 1BC       0.203000
     21 C18          1.0140    -1.7420    -1.9750 cd         1 1BC      -0.182300
     22 C19         -0.0090    -1.3140    -3.0010 c3         1 1BC      -0.015100
     23 C20          0.6070    -1.1470    -4.4060 c3         1 1BC      -0.072400
     24 C21         -0.4160    -0.6990    -5.4670 c3         1 1BC      -0.090100
     25 C23          3.6020    -1.2830     0.6950 cc         1 1BC      -0.145000
     26 C24          4.3260    -2.1240     1.4960 cd         1 1BC      -0.174000
     27 N25          5.1170    -1.2850     2.2910 na         1 1BC      -0.002200
     28 N26          4.9110     0.0630     2.0110 nd         1 1BC      -0.521800
     29 C29          4.0030     0.0220     1.0560 cc         1 1BC       0.259900
     30 C30          1.3820     2.7470     0.0710 ce         1 1BC       0.680300
     31 N31          1.3480     3.5190    -0.9770 nf         1 1BC      -0.632100
     32 C32          1.8240     4.8180    -0.8270 c          1 1BC       0.695500
     33 C33          2.9970     4.9160     0.1120 c6         1 1BC      -0.332700
     34 C34          2.5500     4.2310     1.3710 c2         1 1BC       0.485200
     35 N35          1.7820     3.1800     1.3460 ne         1 1BC      -0.708000
     36 O36          1.1930     5.7840    -1.2190 o          1 1BC      -0.486100
     37 H1          -4.9190     2.9010     0.7680 ha         1 1BC       0.132000
     38 H2          -2.6720     2.3650    -0.1360 ha         1 1BC       0.148000
     39 H3           0.2120    -1.3040     0.2050 hn         1 1BC       0.479000
     40 H4           0.2810    -2.6740     2.7980 hc         1 1BC       0.043200
     41 H5          -0.9210    -3.9500     2.5610 hc         1 1BC       0.043200
     42 H6           0.2640    -3.6060     1.2960 hc         1 1BC       0.043200
     43 H7          -1.5340    -3.2530    -0.4480 hc         1 1BC       0.043200
     44 H8          -2.7750    -3.6470     0.7480 hc         1 1BC       0.043200
     45 H9          -2.8750    -2.1380    -0.1650 hc         1 1BC       0.043200
     46 H10         -2.9780    -2.2650     2.8870 hc         1 1BC       0.062700
     47 H11         -1.6740    -1.2050     3.3920 hc         1 1BC       0.062700
     48 H12         -4.7710    -0.5930     3.2850 ha         1 1BC       0.127000
     49 H13          1.3780     0.7730     0.8520 h1         1 1BC       0.058700
     50 H14          1.4050     0.9120    -2.1880 hc         1 1BC       0.061700
     51 H15          2.8580     0.9250    -1.2670 hc         1 1BC       0.061700
     52 H16          2.9230    -3.9080     0.0760 h4         1 1BC       0.147000
     53 H17         -0.8140    -2.0570    -3.0530 hc         1 1BC       0.059700
     54 H18         -0.4900    -0.3760    -2.7010 hc         1 1BC       0.059700
     55 H19          1.4200    -0.4120    -4.3610 hc         1 1BC       0.041700
     56 H20          1.0550    -2.0980    -4.7190 hc         1 1BC       0.041700
     57 H21          0.0680    -0.5960    -6.4450 hc         1 1BC       0.033700
     58 H22         -1.2250    -1.4330    -5.5600 hc         1 1BC       0.033700
     59 H23         -0.8550     0.2690    -5.1970 hc         1 1BC       0.033700
     60 H24          4.3540    -3.2040     1.5770 h4         1 1BC       0.153000
     61 H25          5.7810    -1.5850     3.0050 hn         1 1BC       0.372000
     62 H26          3.6720     0.9700     0.6640 h4         1 1BC       0.051100
     63 H27          3.8270     4.3180    -0.2850 hc         1 1BC       0.104200
     64 H28          3.2840     5.9600     0.2860 hc         1 1BC       0.104200
     65 H29          2.8960     4.6230     2.3250 h4         1 1BC       0.032800
@<TRIPOS>BOND
     1     1     2 1   
     2     2     3 ar  
     3     2    13 ar  
     4     3     4 ar  
     5     3    37 1   
     6     4     5 ar  
     7     4    38 1   
     8     5     6 1   
     9     5    12 ar  
    10     6     7 1   
    11     6    14 2   
    12     7     8 1   
    13     7    39 1   
    14     8     9 1   
    15     8    10 1   
    16     8    11 1   
    17     9    40 1   
    18     9    41 1   
    19     9    42 1   
    20    10    43 1   
    21    10    44 1   
    22    10    45 1   
    23    11    12 1   
    24    11    46 1   
    25    11    47 1   
    26    12    13 ar  
    27    13    48 1   
    28    14    15 1   
    29    15    16 1   
    30    15    30 1   
    31    15    49 1   
    32    16    17 1   
    33    16    50 1   
    34    16    51 1   
    35    17    18 1   
    36    17    21 2   
    37    18    19 2   
    38    18    25 1   
    39    19    20 1   
    40    19    52 1   
    41    20    21 1   
    42    21    22 1   
    43    22    23 1   
    44    22    53 1   
    45    22    54 1   
    46    23    24 1   
    47    23    55 1   
    48    23    56 1   
    49    24    57 1   
    50    24    58 1   
    51    24    59 1   
    52    25    26 2   
    53    25    29 1   
    54    26    27 1   
    55    26    60 1   
    56    27    28 1   
    57    27    61 1   
    58    28    29 2   
    59    29    62 1   
    60    30    31 2   
    61    30    35 1   
    62    31    32 1   
    63    32    33 1   
    64    32    36 2   
    65    33    34 1   
    66    33    63 1   
    67    33    64 1   
    68    34    35 2   
    69    34    65 1   
@<TRIPOS>SUBSTRUCTURE
     1 1BC         1 TEMP              0 ****  ****    0 ROOT
