@<TRIPOS>MOLECULE
1BD
   27    27     1     0     0
SMALL
No Charge or Current Charge


@<TRIPOS>ATOM
      1 C1          20.3500    40.2460    10.0330 ca         1 1BD      -0.086000
      2 C2          20.5170    40.7810     8.7470 ca         1 1BD      -0.090000
      3 C3          20.9480    42.1170     8.5570 ca         1 1BD      -0.048900
      4 C4          21.2170    42.9240     9.7060 ca         1 1BD      -0.186300
      5 C5          21.0410    42.3630    10.9950 ca         1 1BD      -0.076000
      6 C6          20.6130    41.0380    11.1550 ca         1 1BD      -0.125000
      7 C7          21.1110    42.6430     7.1530 ce         1 1BD       0.348800
      8 N8          20.8870    41.9040     6.1090 n2         1 1BD      -0.272700
      9 O9          21.0750    42.5760     4.8790 os         1 1BD      -0.338000
     10 C10         20.7910    41.7100     3.7580 c3         1 1BD       0.181600
     11 C11         19.2620    41.5630     3.6020 c3         1 1BD      -0.235400
     12 C12         18.9920    40.7460     2.3400 c          1 1BD       0.715000
     13 O13         18.8940    41.3430     1.2800 o          1 1BD      -0.739000
     14 O14         18.9430    39.5300     2.4410 o          1 1BD      -0.739000
     15 C15         21.6910    44.3860     9.5780 c3         1 1BD       0.342300
     16 F16         22.8580    44.4770     8.8990 f          1 1BD      -0.115667
     17 F17         21.9020    44.9860    10.7730 f          1 1BD      -0.115667
     18 F18         20.7860    45.1520     8.9270 f          1 1BD      -0.115667
     19 H1          20.0180    39.2180    10.1560 ha         1 1BD       0.117000
     20 H2          20.3040    40.1400     7.8930 ha         1 1BD       0.150000
     21 H5          21.2360    42.9480    11.8910 ha         1 1BD       0.122000
     22 H6          20.4840    40.6250    12.1540 ha         1 1BD       0.112000
     23 H7          21.4240    43.6790     7.0260 h4         1 1BD       0.013800
     24 H10         21.1970    42.1540     2.8390 h1         1 1BD       0.058700
     25 H10A        21.2610    40.7250     3.8850 h1         1 1BD       0.058700
     26 H11         18.9010    41.0270     4.4880 hc         1 1BD       0.032200
     27 H11A        18.8650    42.5800     3.4990 hc         1 1BD       0.032200
@<TRIPOS>BOND
     1     1     2 ar  
     2     1     6 ar  
     3     1    19 1   
     4     2     3 ar  
     5     2    20 1   
     6     3     4 ar  
     7     3     7 1   
     8     4     5 ar  
     9     4    15 1   
    10     5     6 ar  
    11     5    21 1   
    12     6    22 1   
    13     7     8 2   
    14     7    23 1   
    15     8     9 1   
    16     9    10 1   
    17    10    11 1   
    18    10    24 1   
    19    10    25 1   
    20    11    12 1   
    21    11    26 1   
    22    11    27 1   
    23    12    13 1   
    24    12    14 1   
    25    15    16 1   
    26    15    17 1   
    27    15    18 1   
@<TRIPOS>SUBSTRUCTURE
     1 1BD         1 TEMP              0 ****  ****    0 ROOT
