@<TRIPOS>MOLECULE
1BD
   27    27     1     0     0
SMALL
abcg2


@<TRIPOS>ATOM
      1 C1          20.4680    40.2320     9.9840 ca         1 1BD      -0.086000
      2 C2          20.5610    40.7800     8.7160 ca         1 1BD      -0.090000
      3 C3          20.9290    42.1170     8.5260 ca         1 1BD      -0.048900
      4 C4          21.1990    42.8950     9.6700 ca         1 1BD      -0.186300
      5 C5          21.1030    42.3400    10.9430 ca         1 1BD      -0.076000
      6 C6          20.7390    41.0110    11.1040 ca         1 1BD      -0.125000
      7 C7          21.0220    42.6770     7.1730 ce         1 1BD       0.348800
      8 N8          20.9010    41.9260     6.1480 n2         1 1BD      -0.272700
      9 O9          21.0330    42.6420     4.9730 os         1 1BD      -0.338000
     10 C10         20.7940    41.7920     3.8310 c3         1 1BD       0.181600
     11 C11         19.3190    41.5110     3.6290 c3         1 1BD      -0.235400
     12 C12         19.0000    40.6910     2.3620 c          1 1BD       0.715000
     13 O13         19.8990    40.5960     1.4880 o          1 1BD      -0.739000
     14 O14         17.8450    40.1970     2.2970 o          1 1BD      -0.739000
     15 C15         21.5970    44.3410     9.5440 c3         1 1BD       0.342300
     16 F16         22.7190    44.5070     8.7990 f          1 1BD      -0.115667
     17 F17         21.8440    44.9210    10.7330 f          1 1BD      -0.115667
     18 F18         20.6330    45.0890     8.9480 f          1 1BD      -0.115667
     19 H1          20.1800    39.1950    10.1000 ha         1 1BD       0.117000
     20 H2          20.3430    40.1740     7.8480 ha         1 1BD       0.150000
     21 H5          21.3140    42.9490    11.8100 ha         1 1BD       0.122000
     22 H6          20.6660    40.5900    12.0980 ha         1 1BD       0.112000
     23 H7          21.1960    43.7390     7.0360 h4         1 1BD       0.013800
     24 H10         21.2070    42.3500     2.9940 h1         1 1BD       0.058700
     25 H10A        21.3670    40.8710     3.9550 h1         1 1BD       0.058700
     26 H11         18.9130    40.9870     4.4970 hc         1 1BD       0.032200
     27 H11A        18.7770    42.4590     3.5540 hc         1 1BD       0.032200
@<TRIPOS>BOND
     1     1     2 ar  
     2     1     6 ar  
     3     1    19 1   
     4     2     3 ar  
     5     2    20 1   
     6     3     4 ar  
     7     3     7 1   
     8     4     5 ar  
     9     4    15 1   
    10     5     6 ar  
    11     5    21 1   
    12     6    22 1   
    13     7     8 2   
    14     7    23 1   
    15     8     9 1   
    16     9    10 1   
    17    10    11 1   
    18    10    24 1   
    19    10    25 1   
    20    11    12 1   
    21    11    26 1   
    22    11    27 1   
    23    12    13 1   
    24    12    14 1   
    25    15    16 1   
    26    15    17 1   
    27    15    18 1   
@<TRIPOS>SUBSTRUCTURE
     1 1BD         1 TEMP              0 ****  ****    0 ROOT
