@<TRIPOS>MOLECULE
1BE
   58    61     1     0     0
SMALL
No Charge or Current Charge


@<TRIPOS>ATOM
      1 Cl1         -6.4460    -0.8030     0.3770 cl         1 1BE      -0.233000
      2 C1          -4.8100    -0.2950    -0.0200 ca         1 1BE       0.124000
      3 C6          -3.9890    -1.1230    -0.7990 ca         1 1BE      -0.121000
      4 C5          -2.6810    -0.7190    -1.1210 ca         1 1BE      -0.068000
      5 C4          -2.1780     0.5230    -0.6610 ca         1 1BE      -0.160900
      6 C12         -0.7760     0.9930    -0.9570 ce         1 1BE       0.702800
      7 N11         -0.2840     2.0600    -0.4150 n2         1 1BE      -0.702900
      8 C10         -0.9380     2.6690     0.7600 c6         1 1BE       0.171200
      9 C28         -0.5060     1.8690     2.0250 c3         1 1BE      -0.079100
     10 C27         -0.3910     4.1180     0.9030 c3         1 1BE      -0.079100
     11 C9          -2.4850     2.6840     0.6140 c6         1 1BE      -0.058100
     12 C3          -3.0170     1.3420     0.1270 ca         1 1BE      -0.046300
     13 C2          -4.3270     0.9370     0.4410 ca         1 1BE      -0.117000
     14 N13         -0.0310     0.2760    -1.8840 nu         1 1BE      -0.866400
     15 C14          1.4650     0.2560    -2.0180 c3         1 1BE       0.076500
     16 C15          2.0810    -0.9710    -1.2880 c3         1 1BE      -0.014100
     17 C7           1.9480     0.2910    -3.5170 c          1 1BE       0.711000
     18 O8           1.4110    -0.4610    -4.3230 o          1 1BE      -0.723000
     19 O9           2.7870     1.1220    -3.8400 o          1 1BE      -0.723000
     20 C11          1.8130    -1.0320     0.2050 cc         1 1BE      -0.044300
     21 C13          2.5070    -0.2460     1.1980 cc         1 1BE       0.014000
     22 C16          2.0910    -0.5090     2.4830 cd         1 1BE      -0.255000
     23 S17          0.8240    -1.7270     2.5410 ss         1 1BE       0.112000
     24 C18          0.8870    -1.8810     0.7840 cd         1 1BE      -0.199300
     25 C19         -0.0290    -2.8790     0.1160 c3         1 1BE      -0.002100
     26 C20          0.5750    -4.2980     0.0850 c3         1 1BE      -0.075400
     27 C21         -0.3410    -5.3310    -0.5980 c3         1 1BE      -0.088100
     28 C23          3.5570     0.7420     1.0000 cc         1 1BE      -0.119000
     29 C24          4.1400     1.4480     2.0170 cd         1 1BE      -0.158000
     30 N25          5.0860     2.2740     1.3970 na         1 1BE      -0.014200
     31 N26          5.1160     2.1050     0.0160 nd         1 1BE      -0.537800
     32 C29          4.1910     1.1850    -0.1820 cc         1 1BE       0.270900
     33 H1          -4.3660    -2.0780    -1.1550 ha         1 1BE       0.122000
     34 H2          -2.0730    -1.3850    -1.7250 ha         1 1BE       0.133000
     35 H3           0.5830     1.8750     2.1490 hc         1 1BE       0.030867
     36 H4          -0.9400     2.2990     2.9360 hc         1 1BE       0.030867
     37 H5          -0.8290     0.8230     1.9740 hc         1 1BE       0.030867
     38 H6          -0.6310     4.7260     0.0220 hc         1 1BE       0.030867
     39 H7          -0.8230     4.6210     1.7770 hc         1 1BE       0.030867
     40 H8           0.7000     4.1280     1.0230 hc         1 1BE       0.030867
     41 H9          -2.9530     2.9630     1.5690 hc         1 1BE       0.051700
     42 H10         -2.7820     3.4560    -0.1090 hc         1 1BE       0.051700
     43 H11         -4.9690     1.5760     1.0420 ha         1 1BE       0.119000
     44 H12         -0.5650    -0.3190    -2.5080 hn         1 1BE       0.502000
     45 H13          1.8720     1.1640    -1.5560 h1         1 1BE       0.078700
     46 H14          1.7050    -1.8770    -1.7740 hc         1 1BE       0.054700
     47 H15          3.1590    -1.0180    -1.4690 hc         1 1BE       0.054700
     48 H17          2.4360    -0.0730     3.4090 h4         1 1BE       0.134000
     49 H18         -0.9890    -2.9110     0.6460 hc         1 1BE       0.051200
     50 H19         -0.2620    -2.5680    -0.9080 hc         1 1BE       0.051200
     51 H20          1.5370    -4.2690    -0.4420 hc         1 1BE       0.041200
     52 H21          0.7830    -4.6260     1.1110 hc         1 1BE       0.041200
     53 H22         -1.3010    -5.4050    -0.0730 hc         1 1BE       0.027033
     54 H23         -0.5370    -5.0470    -1.6390 hc         1 1BE       0.027033
     55 H24          0.1300    -6.3210    -0.5950 hc         1 1BE       0.027033
     56 H25          3.9790     1.4450     3.0880 h4         1 1BE       0.150000
     57 H26          5.7040     2.9360     1.8660 hn         1 1BE       0.358000
     58 H27          4.0260     0.8750    -1.2000 h4         1 1BE       0.042100
@<TRIPOS>BOND
     1     1     2 1   
     2     2     3 ar  
     3     2    13 ar  
     4     3     4 ar  
     5     3    33 1   
     6     4     5 ar  
     7     4    34 1   
     8     5     6 1   
     9     5    12 ar  
    10     6     7 2   
    11     6    14 1   
    12     7     8 1   
    13     8     9 1   
    14     8    10 1   
    15     8    11 1   
    16     9    35 1   
    17     9    36 1   
    18     9    37 1   
    19    10    38 1   
    20    10    39 1   
    21    10    40 1   
    22    11    12 1   
    23    11    41 1   
    24    11    42 1   
    25    12    13 ar  
    26    13    43 1   
    27    14    15 1   
    28    14    44 1   
    29    15    16 1   
    30    15    17 1   
    31    15    45 1   
    32    16    20 1   
    33    16    46 1   
    34    16    47 1   
    35    17    18 1   
    36    17    19 1   
    37    20    21 1   
    38    20    24 2   
    39    21    22 2   
    40    21    28 1   
    41    22    23 1   
    42    22    48 1   
    43    23    24 1   
    44    24    25 1   
    45    25    26 1   
    46    25    49 1   
    47    25    50 1   
    48    26    27 1   
    49    26    51 1   
    50    26    52 1   
    51    27    53 1   
    52    27    54 1   
    53    27    55 1   
    54    28    29 2   
    55    28    32 1   
    56    29    30 1   
    57    29    56 1   
    58    30    31 1   
    59    30    57 1   
    60    31    32 2   
    61    32    58 1   
@<TRIPOS>SUBSTRUCTURE
     1 1BE         1 TEMP              0 ****  ****    0 ROOT
