@<TRIPOS>MOLECULE
1BE
   58    61     1     0     0
SMALL
abcg2


@<TRIPOS>ATOM
      1 CL1         -6.5800    -0.1410     0.1840 cl         1 1BE      -0.233000
      2 C1          -4.8880     0.1280    -0.0810 ca         1 1BE       0.124000
      3 C6          -4.1300    -0.8560    -0.6930 ca         1 1BE      -0.121000
      4 C5          -2.7770    -0.6260    -0.8950 ca         1 1BE      -0.068000
      5 C4          -2.1880     0.5720    -0.5040 ca         1 1BE      -0.160900
      6 C12         -0.7420     0.8660    -0.6840 ce         1 1BE       0.702800
      7 N11         -0.1240     1.7670    -0.0210 n2         1 1BE      -0.702900
      8 C10         -0.8440     2.5200     0.9930 c6         1 1BE       0.171200
      9 C28         -0.8190     1.7430     2.3120 c3         1 1BE      -0.079100
     10 C27         -0.1210     3.8500     1.1800 c3         1 1BE      -0.079100
     11 C9          -2.2850     2.8060     0.5510 c6         1 1BE      -0.058100
     12 C3          -2.9660     1.5440     0.1270 ca         1 1BE      -0.046300
     13 C2          -4.3190     1.3210     0.3370 ca         1 1BE      -0.117000
     14 N13         -0.1020     0.0880    -1.5960 nu         1 1BE      -0.866400
     15 C14          1.2990     0.2030    -1.8980 c3         1 1BE       0.076500
     16 C15          2.0840    -0.9810    -1.2980 c3         1 1BE      -0.014100
     17 C7           1.5370     0.2450    -3.4260 c          1 1BE       0.711000
     18 O8           0.5500     0.0530    -4.1650 o          1 1BE      -0.723000
     19 O9           2.7120     0.4430    -3.7830 o          1 1BE      -0.723000
     20 C11          1.8690    -1.1260     0.1760 cc         1 1BE      -0.044300
     21 C13          2.5160    -0.3110     1.1670 cc         1 1BE       0.014000
     22 C16          2.1050    -0.6060     2.4320 cd         1 1BE      -0.255000
     23 S17          0.9260    -1.8450     2.4440 ss         1 1BE       0.112000
     24 C18          0.9770    -2.0000     0.7270 cd         1 1BE      -0.199300
     25 C19          0.1520    -3.0430     0.0430 c3         1 1BE      -0.002100
     26 C20          0.8710    -4.3880    -0.0820 c3         1 1BE      -0.075400
     27 C21          0.0340    -5.4190    -0.8240 c3         1 1BE      -0.088100
     28 C23          3.4930     0.7380     0.8830 cc         1 1BE      -0.119000
     29 C24          3.4920     2.0210     1.3890 cd         1 1BE      -0.158000
     30 N25          4.5820     2.6300     0.8990 na         1 1BE      -0.014200
     31 N26          5.3040     1.8480     0.1060 nd         1 1BE      -0.537800
     32 C29          4.6560     0.6980     0.0850 cc         1 1BE       0.270900
     33 H1          -4.5790    -1.7900    -1.0030 ha         1 1BE       0.122000
     34 H2          -2.1870    -1.4100    -1.3520 ha         1 1BE       0.133000
     35 H3           0.2110     1.5190     2.5900 hc         1 1BE       0.030867
     36 H4          -1.2840     2.3160     3.1180 hc         1 1BE       0.030867
     37 H5          -1.3390     0.7870     2.2300 hc         1 1BE       0.030867
     38 H6          -0.1160     4.4260     0.2530 hc         1 1BE       0.030867
     39 H7          -0.6020     4.4570     1.9500 hc         1 1BE       0.030867
     40 H8           0.9160     3.6870     1.4770 hc         1 1BE       0.030867
     41 H9          -2.8480     3.3040     1.3430 hc         1 1BE       0.051700
     42 H10         -2.2610     3.4970    -0.3010 hc         1 1BE       0.051700
     43 H11         -4.9220     2.0740     0.8290 ha         1 1BE       0.119000
     44 H12         -0.6470    -0.2860    -2.3570 hn         1 1BE       0.502000
     45 H13          1.6780     1.1250    -1.4500 h1         1 1BE       0.078700
     46 H14          1.7770    -1.8990    -1.8060 hc         1 1BE       0.054700
     47 H15          3.1400    -0.8440    -1.5280 hc         1 1BE       0.054700
     48 H17          2.4410    -0.1540     3.3530 h4         1 1BE       0.134000
     49 H18         -0.7960    -3.1830     0.5700 hc         1 1BE       0.051200
     50 H19         -0.1120    -2.6800    -0.9520 hc         1 1BE       0.051200
     51 H20          1.8200    -4.2350    -0.6040 hc         1 1BE       0.041200
     52 H21          1.1270    -4.7590     0.9140 hc         1 1BE       0.041200
     53 H22         -0.9000    -5.6260    -0.2980 hc         1 1BE       0.027033
     54 H23         -0.2240    -5.0690    -1.8250 hc         1 1BE       0.027033
     55 H24          0.5680    -6.3640    -0.9300 hc         1 1BE       0.027033
     56 H25          2.7960     2.5250     2.0380 h4         1 1BE       0.150000
     57 H26          4.8720     3.5800     1.0670 hn         1 1BE       0.358000
     58 H27          5.0450    -0.1330    -0.4850 h4         1 1BE       0.042100
@<TRIPOS>BOND
     1     1     2 1   
     2     2     3 ar  
     3     2    13 ar  
     4     3     4 ar  
     5     3    33 1   
     6     4     5 ar  
     7     4    34 1   
     8     5     6 1   
     9     5    12 ar  
    10     6     7 2   
    11     6    14 1   
    12     7     8 1   
    13     8     9 1   
    14     8    10 1   
    15     8    11 1   
    16     9    35 1   
    17     9    36 1   
    18     9    37 1   
    19    10    38 1   
    20    10    39 1   
    21    10    40 1   
    22    11    12 1   
    23    11    41 1   
    24    11    42 1   
    25    12    13 ar  
    26    13    43 1   
    27    14    15 1   
    28    14    44 1   
    29    15    16 1   
    30    15    17 1   
    31    15    45 1   
    32    16    20 1   
    33    16    46 1   
    34    16    47 1   
    35    17    18 1   
    36    17    19 1   
    37    20    21 1   
    38    20    24 2   
    39    21    22 2   
    40    21    28 1   
    41    22    23 1   
    42    22    48 1   
    43    23    24 1   
    44    24    25 1   
    45    25    26 1   
    46    25    49 1   
    47    25    50 1   
    48    26    27 1   
    49    26    51 1   
    50    26    52 1   
    51    27    53 1   
    52    27    54 1   
    53    27    55 1   
    54    28    29 2   
    55    28    32 1   
    56    29    30 1   
    57    29    56 1   
    58    30    31 1   
    59    30    57 1   
    60    31    32 2   
    61    32    58 1   
@<TRIPOS>SUBSTRUCTURE
     1 1BE         1 TEMP              0 ****  ****    0 ROOT
