@<TRIPOS>MOLECULE
1BF
   49    52     1     0     0
SMALL
abcg2


@<TRIPOS>ATOM
      1 CL1         -6.1960    -1.5560     0.5280 cl         1 1BF      -0.235000
      2 C2          -4.6070    -0.9200     0.2550 ca         1 1BF       0.122000
      3 C3          -3.6830    -1.6790    -0.4450 ca         1 1BF      -0.122000
      4 C4          -2.4150    -1.1580    -0.6550 ca         1 1BF      -0.074000
      5 C7          -4.2820     0.3310     0.7560 ca         1 1BF      -0.116000
      6 C6          -3.0140     0.8470     0.5390 ca         1 1BF      -0.043300
      7 C5          -2.0760     0.1080    -0.1860 ca         1 1BF      -0.157900
      8 C11         -2.5860     2.1800     1.0660 c6         1 1BF      -0.059100
      9 C10         -1.1030     2.1510     1.4550 c6         1 1BF       0.169200
     10 C28         -0.6450     3.5700     1.7780 c3         1 1BF      -0.079100
     11 C29         -0.8790     1.2650     2.6850 c3         1 1BF      -0.079100
     12 N9          -0.2900     1.6680     0.3520 n2         1 1BF      -0.685900
     13 C8          -0.7320     0.7130    -0.3740 ce         1 1BF       0.703800
     14 N12          0.0340     0.1500    -1.3420 nu         1 1BF      -0.847400
     15 C13          1.3490     0.6370    -1.6530 c3         1 1BF       0.073500
     16 C25          1.3700     1.7210    -2.7580 c          1 1BF       0.711000
     17 O26          2.4930     2.2080    -2.9990 o          1 1BF      -0.724500
     18 O27          0.2940     2.0070    -3.3120 o          1 1BF      -0.724500
     19 C14          2.2630    -0.5360    -2.0390 c3         1 1BF      -0.013100
     20 C15          2.2820    -1.6150    -1.0020 cc         1 1BF      -0.041300
     21 C16          1.7560    -2.8540    -1.2030 cd         1 1BF      -0.258000
     22 S17          1.8430    -3.8430     0.1950 ss         1 1BF       0.117000
     23 C18          2.6030    -2.5930     1.0840 cd         1 1BF      -0.255000
     24 C19          2.7770    -1.4610     0.3400 cc         1 1BF       0.011000
     25 C20          3.3790    -0.2440     0.8790 cc         1 1BF      -0.129000
     26 C21          3.1470     0.3150     2.1190 cd         1 1BF      -0.162000
     27 N22          3.9120     1.4130     2.1950 na         1 1BF      -0.011200
     28 N23          4.6310     1.6250     1.0990 nd         1 1BF      -0.529800
     29 C24          4.3170     0.6300     0.2910 cc         1 1BF       0.277900
     30 H1          -3.9390    -2.6620    -0.8140 ha         1 1BF       0.120000
     31 H2          -1.6860    -1.7680    -1.1730 ha         1 1BF       0.129000
     32 H3          -5.0090     0.8990     1.3240 ha         1 1BF       0.119000
     33 H4          -2.7310     2.9370     0.2850 hc         1 1BF       0.055200
     34 H5          -3.2100     2.4810     1.9110 hc         1 1BF       0.055200
     35 H6          -1.2220     3.9910     2.6040 hc         1 1BF       0.030367
     36 H7           0.4080     3.5750     2.0620 hc         1 1BF       0.030367
     37 H8          -0.7650     4.2240     0.9130 hc         1 1BF       0.030367
     38 H9          -1.2090     0.2390     2.5140 hc         1 1BF       0.030367
     39 H10          0.1840     1.2330     2.9260 hc         1 1BF       0.030367
     40 H11         -1.4140     1.6520     3.5550 hc         1 1BF       0.030367
     41 H12         -0.4560    -0.2960    -2.1000 hn         1 1BF       0.472000
     42 H13          1.7360     1.0900    -0.7400 h1         1 1BF       0.084700
     43 H15          1.9330    -0.9650    -2.9900 hc         1 1BF       0.056700
     44 H16          3.2640    -0.1420    -2.2160 hc         1 1BF       0.056700
     45 H17          1.2990    -3.2270    -2.1070 h4         1 1BF       0.140000
     46 H18          2.9040    -2.7560     2.1080 h4         1 1BF       0.134000
     47 H19          2.4890     0.0180     2.9200 h4         1 1BF       0.146000
     48 H20          3.9770     2.0530     2.9700 hn         1 1BF       0.359000
     49 H21          4.7760     0.5590    -0.6830 h4         1 1BF       0.049100
@<TRIPOS>BOND
     1     1     2 1   
     2     2     3 ar  
     3     2     5 ar  
     4     3     4 ar  
     5     3    30 1   
     6     4     7 ar  
     7     4    31 1   
     8     5     6 ar  
     9     5    32 1   
    10     6     7 ar  
    11     6     8 1   
    12     7    13 1   
    13     8     9 1   
    14     8    33 1   
    15     8    34 1   
    16     9    10 1   
    17     9    11 1   
    18     9    12 1   
    19    10    35 1   
    20    10    36 1   
    21    10    37 1   
    22    11    38 1   
    23    11    39 1   
    24    11    40 1   
    25    12    13 2   
    26    13    14 1   
    27    14    15 1   
    28    14    41 1   
    29    15    16 1   
    30    15    19 1   
    31    15    42 1   
    32    16    17 1   
    33    16    18 1   
    34    19    20 1   
    35    19    43 1   
    36    19    44 1   
    37    20    21 2   
    38    20    24 1   
    39    21    22 1   
    40    21    45 1   
    41    22    23 1   
    42    23    24 2   
    43    23    46 1   
    44    24    25 1   
    45    25    26 2   
    46    25    29 1   
    47    26    27 1   
    48    26    47 1   
    49    27    28 1   
    50    27    48 1   
    51    28    29 2   
    52    29    49 1   
@<TRIPOS>SUBSTRUCTURE
     1 1BF         1 TEMP              0 ****  ****    0 ROOT
