@<TRIPOS>MOLECULE
1BF
   49    52     1     0     0
SMALL
No Charge or Current Charge


@<TRIPOS>ATOM
      1 Cl1         -5.8810    -2.1750     0.3830 cl         1 1BF      -0.235000
      2 C2          -4.4160    -1.2610     0.0490 ca         1 1BF       0.122000
      3 C3          -3.5500    -1.6740    -0.9740 ca         1 1BF      -0.122000
      4 C4          -2.3790    -0.9460    -1.2450 ca         1 1BF      -0.074000
      5 C7          -4.1120    -0.1230     0.8090 ca         1 1BF      -0.116000
      6 C6          -2.9370     0.6050     0.5450 ca         1 1BF      -0.043300
      7 C5          -2.0640     0.2120    -0.4920 ca         1 1BF      -0.157900
      8 C11         -2.5860     1.8400     1.3670 c6         1 1BF      -0.059100
      9 C10         -1.0490     2.0620     1.4280 c6         1 1BF       0.169200
     10 C28         -0.7250     3.4850     1.9670 c3         1 1BF      -0.079100
     11 C29         -0.3730     1.0270     2.3760 c3         1 1BF      -0.079100
     12 N9          -0.4260     1.9390     0.0950 n2         1 1BF      -0.685900
     13 C8          -0.8090     1.0130    -0.7220 ce         1 1BF       0.703800
     14 N12         -0.0830     0.7650    -1.8810 nu         1 1BF      -0.847400
     15 C13          1.4130     0.7840    -1.9890 c3         1 1BF       0.073500
     16 C25          1.9340     1.4230    -3.3310 c          1 1BF       0.711000
     17 O26          2.6890     2.3850    -3.2620 o          1 1BF      -0.724500
     18 O27          1.5290     0.9690    -4.3950 o          1 1BF      -0.724500
     19 C14          1.9960    -0.6460    -1.8080 c3         1 1BF      -0.013100
     20 C15          1.6430    -1.3100    -0.4970 cc         1 1BF      -0.041300
     21 C16          0.7000    -2.3070    -0.4130 cd         1 1BF      -0.258000
     22 S17          0.4550    -2.8880     1.2320 ss         1 1BF       0.117000
     23 C18          1.6960    -1.7760     1.8040 cd         1 1BF      -0.255000
     24 C19          2.2260    -1.0140     0.7870 cc         1 1BF       0.011000
     25 C20          3.2660    -0.0490     1.1020 cc         1 1BF      -0.129000
     26 C21          3.7380     0.1810     2.3650 cd         1 1BF      -0.162000
     27 N22          4.7180     1.1690     2.2150 na         1 1BF      -0.011200
     28 N23          4.8790     1.5630     0.8900 nd         1 1BF      -0.529800
     29 C24          3.9960     0.8140     0.2580 cc         1 1BF       0.277900
     30 H1          -3.7850    -2.5620    -1.5560 ha         1 1BF       0.120000
     31 H2          -1.7210    -1.2990    -2.0350 ha         1 1BF       0.129000
     32 H3          -4.7840     0.1900     1.6040 ha         1 1BF       0.119000
     33 H4          -3.0700     2.7120     0.9080 hc         1 1BF       0.055200
     34 H5          -2.9970     1.7590     2.3830 hc         1 1BF       0.055200
     35 H6          -1.1450     3.6350     2.9690 hc         1 1BF       0.030367
     36 H7           0.3560     3.6560     2.0330 hc         1 1BF       0.030367
     37 H8          -1.1420     4.2640     1.3170 hc         1 1BF       0.030367
     38 H9          -0.5640    -0.0020     2.0510 hc         1 1BF       0.030367
     39 H10          0.7140     1.1650     2.4160 hc         1 1BF       0.030367
     40 H11         -0.7530     1.1180     3.4010 hc         1 1BF       0.030367
     41 H12         -0.5870     0.2380    -2.5860 hn         1 1BF       0.472000
     42 H13          1.8130     1.4160    -1.1880 h1         1 1BF       0.084700
     43 H15          1.6210    -1.2680    -2.6300 hc         1 1BF       0.056700
     44 H16          3.0810    -0.6390    -1.9480 hc         1 1BF       0.056700
     45 H17          0.1170    -2.7350    -1.2190 h4         1 1BF       0.140000
     46 H18          1.9440    -1.7650     2.8560 h4         1 1BF       0.134000
     47 H19          3.4770    -0.2480     3.3260 h4         1 1BF       0.146000
     48 H20          5.2760     1.5790     2.9640 hn         1 1BF       0.359000
     49 H21          3.9320     0.9330    -0.8120 h4         1 1BF       0.049100
@<TRIPOS>BOND
     1     1     2 1   
     2     2     3 ar  
     3     2     5 ar  
     4     3     4 ar  
     5     3    30 1   
     6     4     7 ar  
     7     4    31 1   
     8     5     6 ar  
     9     5    32 1   
    10     6     7 ar  
    11     6     8 1   
    12     7    13 1   
    13     8     9 1   
    14     8    33 1   
    15     8    34 1   
    16     9    10 1   
    17     9    11 1   
    18     9    12 1   
    19    10    35 1   
    20    10    36 1   
    21    10    37 1   
    22    11    38 1   
    23    11    39 1   
    24    11    40 1   
    25    12    13 2   
    26    13    14 1   
    27    14    15 1   
    28    14    41 1   
    29    15    16 1   
    30    15    19 1   
    31    15    42 1   
    32    16    17 1   
    33    16    18 1   
    34    19    20 1   
    35    19    43 1   
    36    19    44 1   
    37    20    21 2   
    38    20    24 1   
    39    21    22 1   
    40    21    45 1   
    41    22    23 1   
    42    23    24 2   
    43    23    46 1   
    44    24    25 1   
    45    25    26 2   
    46    25    29 1   
    47    26    27 1   
    48    26    47 1   
    49    27    28 1   
    50    27    48 1   
    51    28    29 2   
    52    29    49 1   
@<TRIPOS>SUBSTRUCTURE
     1 1BF         1 TEMP              0 ****  ****    0 ROOT
