@<TRIPOS>MOLECULE
1BG
   83    87     1     0     0
SMALL
abcg2


@<TRIPOS>ATOM
      1 N2           6.6340    -1.1930     1.8450 n7         1 1BG      -0.844400
      2 C1           7.3060    -2.3160     2.4690 c3         1 1BG       0.145100
      3 C3           5.1920    -1.3240     1.8310 c3         1 1BG       0.099500
      4 C5           4.6030    -1.1050     3.2270 c3         1 1BG      -0.089100
      5 C6           4.5890    -0.2870     0.8900 c          1 1BG       0.595100
      6 O7           5.1460     0.7660     0.6260 o          1 1BG      -0.589100
      7 N8           3.3810    -0.6360     0.4110 ns         1 1BG      -0.495900
      8 C9           2.5190     0.2470    -0.3300 c3         1 1BG       0.040700
      9 C17          1.2230     0.4450     0.4560 c          1 1BG       0.594100
     10 O18          0.8620    -0.4110     1.2520 o          1 1BG      -0.620100
     11 C11          2.2170    -0.2850    -1.7470 c6         1 1BG      -0.067700
     12 C16          1.5050    -1.6380    -1.7470 c6         1 1BG      -0.070400
     13 C15          1.2220    -2.1120    -3.1690 c6         1 1BG      -0.073900
     14 C14          2.4940    -2.1710    -4.0060 c6         1 1BG      -0.075400
     15 C13          3.2080    -0.8240    -4.0050 c6         1 1BG      -0.073900
     16 C12          3.4940    -0.3460    -2.5850 c6         1 1BG      -0.070400
     17 N19          0.4930     1.5640     0.2320 n          1 1BG      -0.377800
     18 C20          0.7660     2.5180    -0.8390 c6         1 1BG       0.110000
     19 C21          0.2520     3.8880    -0.4630 c5         1 1BG       0.147500
     20 C23          0.2850     4.9330    -1.5750 c5         1 1BG      -0.072400
     21 C24         -0.9450     5.8220    -1.2820 c5         1 1BG      -0.077400
     22 C25         -1.6070     5.1770    -0.0580 c5         1 1BG       0.160800
     23 N26         -1.1550     3.8020    -0.1280 n3         1 1BG      -0.708600
     24 C27         -1.3310     3.0140     1.0580 c6         1 1BG       0.169800
     25 C28         -0.8350     1.5880     0.8200 c6         1 1BG       0.019700
     26 C30         -1.7930     0.7610    -0.0450 c          1 1BG       0.600100
     27 O31         -1.5150     0.4170    -1.1810 o          1 1BG      -0.596100
     28 N32         -2.9390     0.4320     0.5770 ns         1 1BG      -0.501900
     29 C33         -3.9560    -0.4300     0.0150 c6         1 1BG       0.155000
     30 C34         -5.3180     0.2510     0.0330 c6         1 1BG      -0.084400
     31 C35         -6.3900    -0.7230    -0.4280 c6         1 1BG      -0.071400
     32 C36         -6.5090    -1.8720     0.5610 c6         1 1BG      -0.033100
     33 C37         -5.1740    -2.4630     0.9380 ca         1 1BG      -0.066300
     34 C38         -5.1360    -3.7130     1.5560 ca         1 1BG      -0.116000
     35 C39         -3.9410    -4.2940     1.9420 ca         1 1BG      -0.105000
     36 C40         -2.7480    -3.6200     1.7070 ca         1 1BG      -0.113000
     37 C41         -2.7710    -2.3790     1.0960 ca         1 1BG      -0.095000
     38 C42         -3.9740    -1.7840     0.7090 ca         1 1BG      -0.103300
     39 H4           6.9700    -1.1060     0.8950 hn         1 1BG       0.422000
     40 H1           6.9840    -3.2960     2.0890 h1         1 1BG       0.029700
     41 H2           8.3790    -2.2280     2.3040 h1         1 1BG       0.029700
     42 H3           7.1460    -2.3170     3.5480 h1         1 1BG       0.029700
     43 H6           4.8760    -2.3240     1.4860 h1         1 1BG       0.024700
     44 H7           4.9900    -1.8390     3.9330 hc         1 1BG       0.047367
     45 H8           4.8560    -0.1110     3.5980 hc         1 1BG       0.047367
     46 H9           3.5180    -1.2050     3.2170 hc         1 1BG       0.047367
     47 H10          2.9850    -1.5110     0.7180 hn         1 1BG       0.327500
     48 H11          3.0560     1.1910    -0.4250 h1         1 1BG       0.094700
     49 H12          1.5440     0.4350    -2.2240 hc         1 1BG       0.061700
     50 H21          2.1270    -2.3850    -1.2400 hc         1 1BG       0.045200
     51 H22          0.5660    -1.5770    -1.1930 hc         1 1BG       0.045200
     52 H19          0.7390    -3.0920    -3.1410 hc         1 1BG       0.040950
     53 H20          0.5070    -1.4270    -3.6380 hc         1 1BG       0.040950
     54 H17          3.1620    -2.9350    -3.5940 hc         1 1BG       0.037200
     55 H18          2.2630    -2.4770    -5.0290 hc         1 1BG       0.037200
     56 H15          4.1410    -0.8870    -4.5710 hc         1 1BG       0.040950
     57 H16          2.5840    -0.0840    -4.5180 hc         1 1BG       0.040950
     58 H13          3.9710     0.6380    -2.6080 hc         1 1BG       0.045200
     59 H14          4.2070    -1.0280    -2.1090 hc         1 1BG       0.045200
     60 H23          1.8370     2.5790    -1.0220 h1         1 1BG       0.064700
     61 H24          0.2830     2.2000    -1.7660 h1         1 1BG       0.064700
     62 H25          0.8300     4.2570     0.4060 h1         1 1BG       0.036700
     63 H26          1.2200     5.4910    -1.5690 hc         1 1BG       0.052700
     64 H27          0.1960     4.4560    -2.5530 hc         1 1BG       0.052700
     65 H28         -0.6700     6.8570    -1.0830 hc         1 1BG       0.050700
     66 H29         -1.6260     5.8260    -2.1320 hc         1 1BG       0.050700
     67 H30         -1.2620     5.6690     0.8670 h1         1 1BG       0.038200
     68 H31         -2.6960     5.2360    -0.0740 h1         1 1BG       0.038200
     69 H33         -0.7780     3.4350     1.9150 h1         1 1BG       0.043700
     70 H34         -2.3840     2.9850     1.3450 h1         1 1BG       0.043700
     71 H35         -0.7750     1.1070     1.7970 h1         1 1BG       0.091700
     72 H36         -3.0550     0.6950     1.5440 hn         1 1BG       0.309500
     73 H37         -3.6770    -0.5950    -1.0290 h1         1 1BG       0.091700
     74 H38         -5.5480     0.6020     1.0450 hc         1 1BG       0.047200
     75 H39         -5.2820     1.1320    -0.6120 hc         1 1BG       0.047200
     76 H40         -7.3510    -0.2160    -0.5290 hc         1 1BG       0.046700
     77 H41         -6.1310    -1.1070    -1.4200 hc         1 1BG       0.046700
     78 H42         -7.0030    -1.5130     1.4700 hc         1 1BG       0.048700
     79 H43         -7.1540    -2.6580     0.1620 hc         1 1BG       0.048700
     80 H44         -6.0690    -4.2370     1.7340 ha         1 1BG       0.108000
     81 H45         -3.9370    -5.2650     2.4200 ha         1 1BG       0.112000
     82 H46         -1.8030    -4.0610     1.9970 ha         1 1BG       0.115000
     83 H47         -1.8340    -1.8610     0.9290 ha         1 1BG       0.126000
@<TRIPOS>BOND
     1     1     2 1   
     2     1     3 1   
     3     1    39 1   
     4     2    40 1   
     5     2    41 1   
     6     2    42 1   
     7     3     4 1   
     8     3     5 1   
     9     3    43 1   
    10     4    44 1   
    11     4    45 1   
    12     4    46 1   
    13     5     6 2   
    14     5     7 1   
    15     7     8 1   
    16     7    47 1   
    17     8     9 1   
    18     8    11 1   
    19     8    48 1   
    20     9    10 2   
    21     9    17 1   
    22    11    12 1   
    23    11    16 1   
    24    11    49 1   
    25    12    13 1   
    26    12    50 1   
    27    12    51 1   
    28    13    14 1   
    29    13    52 1   
    30    13    53 1   
    31    14    15 1   
    32    14    54 1   
    33    14    55 1   
    34    15    16 1   
    35    15    56 1   
    36    15    57 1   
    37    16    58 1   
    38    16    59 1   
    39    17    18 1   
    40    17    25 1   
    41    18    19 1   
    42    18    60 1   
    43    18    61 1   
    44    19    20 1   
    45    19    23 1   
    46    19    62 1   
    47    20    21 1   
    48    20    63 1   
    49    20    64 1   
    50    21    22 1   
    51    21    65 1   
    52    21    66 1   
    53    22    23 1   
    54    22    67 1   
    55    22    68 1   
    56    23    24 1   
    57    24    25 1   
    58    24    69 1   
    59    24    70 1   
    60    25    26 1   
    61    25    71 1   
    62    26    27 2   
    63    26    28 1   
    64    28    29 1   
    65    28    72 1   
    66    29    30 1   
    67    29    38 1   
    68    29    73 1   
    69    30    31 1   
    70    30    74 1   
    71    30    75 1   
    72    31    32 1   
    73    31    76 1   
    74    31    77 1   
    75    32    33 1   
    76    32    78 1   
    77    32    79 1   
    78    33    34 ar  
    79    33    38 ar  
    80    34    35 ar  
    81    34    80 1   
    82    35    36 ar  
    83    35    81 1   
    84    36    37 ar  
    85    36    82 1   
    86    37    38 ar  
    87    37    83 1   
@<TRIPOS>SUBSTRUCTURE
     1 1BG         1 TEMP              0 ****  ****    0 ROOT
