@<TRIPOS>MOLECULE
1BG
   83    87     1     0     0
SMALL
No Charge or Current Charge


@<TRIPOS>ATOM
      1 N2           7.5830    -1.0970     0.0380 n7         1 1BG      -0.844400
      2 C1           8.5410    -2.1560     0.4240 c3         1 1BG       0.145100
      3 C3           6.5860    -0.6830     1.0820 c3         1 1BG       0.099500
      4 C5           7.2880     0.0480     2.2520 c3         1 1BG      -0.089100
      5 C6           5.4150     0.1970     0.5090 c          1 1BG       0.595100
      6 O7           5.5760     1.3290     0.0670 o          1 1BG      -0.589100
      7 N8           4.1710    -0.4020     0.5440 ns         1 1BG      -0.495900
      8 C9           2.9060     0.2080     0.0630 c3         1 1BG       0.040700
      9 C17          1.7560    -0.0900     1.0860 c          1 1BG       0.594100
     10 O18          1.8830    -0.9900     1.9120 o          1 1BG      -0.620100
     11 C11          2.5720    -0.2410    -1.4070 c6         1 1BG      -0.067700
     12 C16          2.3890    -1.7820    -1.5400 c6         1 1BG      -0.070400
     13 C15          1.9920    -2.1800    -2.9840 c6         1 1BG      -0.073900
     14 C14          3.0230    -1.6570    -4.0140 c6         1 1BG      -0.075400
     15 C13          3.2140    -0.1260    -3.8860 c6         1 1BG      -0.073900
     16 C12          3.6140     0.2690    -2.4430 c6         1 1BG      -0.070400
     17 N19          0.5770     0.7040     1.0860 n          1 1BG      -0.377800
     18 C20          0.2740     1.7410     0.0410 c6         1 1BG       0.110000
     19 C21         -0.6360     2.8970     0.5570 c5         1 1BG       0.147500
     20 C23         -1.3410     3.7460    -0.5270 c5         1 1BG      -0.072400
     21 C24         -2.5460     4.3670     0.2530 c5         1 1BG      -0.077400
     22 C25         -2.5910     3.5670     1.5900 c5         1 1BG       0.160800
     23 N26         -1.8140     2.3580     1.2550 n3         1 1BG      -0.708600
     24 C27         -1.4640     1.4740     2.3810 c6         1 1BG       0.169800
     25 C28         -0.6390     0.2620     1.8630 c6         1 1BG       0.019700
     26 C30         -1.4970    -0.7560     1.0520 c          1 1BG       0.600100
     27 O31         -1.0450    -1.8300     0.6740 o          1 1BG      -0.596100
     28 N32         -2.7940    -0.3910     0.7680 ns         1 1BG      -0.501900
     29 C33         -3.7670    -1.1680    -0.0020 c6         1 1BG       0.155000
     30 C34         -3.7740    -0.6670    -1.4660 c6         1 1BG      -0.084400
     31 C35         -4.9790    -1.2340    -2.2380 c6         1 1BG      -0.071400
     32 C36         -6.2960    -0.7380    -1.6040 c6         1 1BG      -0.033100
     33 C37         -6.3350    -0.9070    -0.0810 ca         1 1BG      -0.066300
     34 C38         -7.5810    -0.8570     0.5730 ca         1 1BG      -0.116000
     35 C39         -7.6640    -1.0140     1.9660 ca         1 1BG      -0.105000
     36 C40         -6.4970    -1.2260     2.7150 ca         1 1BG      -0.113000
     37 C41         -5.2490    -1.2730     2.0740 ca         1 1BG      -0.095000
     38 C42         -5.1500    -1.0990     0.6760 ca         1 1BG      -0.103300
     39 H4           7.0630    -1.4400    -0.7820 hn         1 1BG       0.422000
     40 H1           8.0130    -3.0680     0.7350 h1         1 1BG       0.029700
     41 H2           9.1910    -2.4120    -0.4230 h1         1 1BG       0.029700
     42 H3           9.1850    -1.8310     1.2520 h1         1 1BG       0.029700
     43 H6           6.1170    -1.5860     1.4970 h1         1 1BG       0.024700
     44 H7           7.9940    -0.6100     2.7690 hc         1 1BG       0.047367
     45 H8           7.8330     0.9290     1.8910 hc         1 1BG       0.047367
     46 H9           6.5480     0.3830     2.9880 hc         1 1BG       0.047367
     47 H10          4.1200    -1.3220     0.9670 hn         1 1BG       0.327500
     48 H11          3.0400     1.2970     0.0660 h1         1 1BG       0.094700
     49 H12          1.6130     0.2220    -1.6690 hc         1 1BG       0.061700
     50 H21          3.3170    -2.3010    -1.2630 hc         1 1BG       0.045200
     51 H22          1.6150    -2.1350    -0.8440 hc         1 1BG       0.045200
     52 H19          1.9110    -3.2730    -3.0600 hc         1 1BG       0.040950
     53 H20          0.9970    -1.7770    -3.2180 hc         1 1BG       0.040950
     54 H17          3.9860    -2.1640    -3.8640 hc         1 1BG       0.037200
     55 H18          2.6930    -1.9090    -5.0310 hc         1 1BG       0.037200
     56 H15          3.9840     0.2130    -4.5930 hc         1 1BG       0.040950
     57 H16          2.2850     0.3880    -4.1680 hc         1 1BG       0.040950
     58 H13          3.7100     1.3610    -2.3750 hc         1 1BG       0.045200
     59 H14          4.6060    -0.1470    -2.2210 hc         1 1BG       0.045200
     60 H23          1.1930     2.1900    -0.3560 h1         1 1BG       0.064700
     61 H24         -0.2370     1.2440    -0.7950 h1         1 1BG       0.064700
     62 H25         -0.0410     3.5310     1.2310 h1         1 1BG       0.036700
     63 H26         -0.6780     4.5070    -0.9550 hc         1 1BG       0.052700
     64 H27         -1.6960     3.1190    -1.3530 hc         1 1BG       0.052700
     65 H28         -2.4100     5.4380     0.4400 hc         1 1BG       0.050700
     66 H29         -3.4780     4.2530    -0.3120 hc         1 1BG       0.050700
     67 H30         -2.1110     4.1340     2.4000 h1         1 1BG       0.038200
     68 H31         -3.6190     3.3310     1.8990 h1         1 1BG       0.038200
     69 H33         -0.8590     2.0230     3.1170 h1         1 1BG       0.043700
     70 H34         -2.3650     1.1230     2.9040 h1         1 1BG       0.043700
     71 H35         -0.3210    -0.2950     2.7530 h1         1 1BG       0.091700
     72 H36         -3.0390     0.5620     1.0200 hn         1 1BG       0.309500
     73 H37         -3.4600    -2.2250    -0.0020 h1         1 1BG       0.091700
     74 H38         -3.8140     0.4320    -1.4860 hc         1 1BG       0.047200
     75 H39         -2.8370    -0.9550    -1.9610 hc         1 1BG       0.047200
     76 H40         -4.9330    -0.9290    -3.2930 hc         1 1BG       0.046700
     77 H41         -4.9470    -2.3320    -2.2240 hc         1 1BG       0.046700
     78 H42         -6.4360     0.3250    -1.8450 hc         1 1BG       0.048700
     79 H43         -7.1410    -1.2690    -2.0640 hc         1 1BG       0.048700
     80 H44         -8.4910    -0.6990    -0.0010 ha         1 1BG       0.108000
     81 H45         -8.6310    -0.9770     2.4620 ha         1 1BG       0.112000
     82 H46         -6.5600    -1.3560     3.7940 ha         1 1BG       0.115000
     83 H47         -4.3550    -1.4460     2.6690 ha         1 1BG       0.126000
@<TRIPOS>BOND
     1     1     2 1   
     2     1     3 1   
     3     1    39 1   
     4     2    40 1   
     5     2    41 1   
     6     2    42 1   
     7     3     4 1   
     8     3     5 1   
     9     3    43 1   
    10     4    44 1   
    11     4    45 1   
    12     4    46 1   
    13     5     6 2   
    14     5     7 1   
    15     7     8 1   
    16     7    47 1   
    17     8     9 1   
    18     8    11 1   
    19     8    48 1   
    20     9    10 2   
    21     9    17 1   
    22    11    12 1   
    23    11    16 1   
    24    11    49 1   
    25    12    13 1   
    26    12    50 1   
    27    12    51 1   
    28    13    14 1   
    29    13    52 1   
    30    13    53 1   
    31    14    15 1   
    32    14    54 1   
    33    14    55 1   
    34    15    16 1   
    35    15    56 1   
    36    15    57 1   
    37    16    58 1   
    38    16    59 1   
    39    17    18 1   
    40    17    25 1   
    41    18    19 1   
    42    18    60 1   
    43    18    61 1   
    44    19    20 1   
    45    19    23 1   
    46    19    62 1   
    47    20    21 1   
    48    20    63 1   
    49    20    64 1   
    50    21    22 1   
    51    21    65 1   
    52    21    66 1   
    53    22    23 1   
    54    22    67 1   
    55    22    68 1   
    56    23    24 1   
    57    24    25 1   
    58    24    69 1   
    59    24    70 1   
    60    25    26 1   
    61    25    71 1   
    62    26    27 2   
    63    26    28 1   
    64    28    29 1   
    65    28    72 1   
    66    29    30 1   
    67    29    38 1   
    68    29    73 1   
    69    30    31 1   
    70    30    74 1   
    71    30    75 1   
    72    31    32 1   
    73    31    76 1   
    74    31    77 1   
    75    32    33 1   
    76    32    78 1   
    77    32    79 1   
    78    33    34 ar  
    79    33    38 ar  
    80    34    35 ar  
    81    34    80 1   
    82    35    36 ar  
    83    35    81 1   
    84    36    37 ar  
    85    36    82 1   
    86    37    38 ar  
    87    37    83 1   
@<TRIPOS>SUBSTRUCTURE
     1 1BG         1 TEMP              0 ****  ****    0 ROOT
