@<TRIPOS>MOLECULE
1BH
   67    69     1     0     0
SMALL
bcc


@<TRIPOS>ATOM
      1 C1          -0.8260     0.3160    -5.7310 c3         1 1BH       0.208700
      2 C3          -1.6170     0.0120    -3.5240 c          1 1BH       0.758100
      3 O4          -1.0360    -1.2210     2.8300 o          1 1BH      -0.587100
      4 O5           1.5330    -0.3430     7.0120 oh         1 1BH      -0.589800
      5 C7          -0.9720    -0.0200     3.0210 c          1 1BH       0.672100
      6 C8           0.8710    -0.0940     4.6820 c3         1 1BH       0.078700
      7 C9           0.5750     0.2440     6.1580 c3         1 1BH       0.129100
      8 C21          0.4890     0.5940    -6.3930 ca         1 1BH      -0.101300
      9 C22          1.3670    -0.4500    -6.6730 ca         1 1BH      -0.101500
     10 C24          2.9690     1.1060    -7.5640 ca         1 1BH      -0.116000
     11 N1          -1.2590     0.0740    -2.2320 ns         1 1BH      -0.563900
     12 C4          -2.1560    -0.2860    -1.1640 c3         1 1BH       0.060700
     13 C41         -2.2230    -1.8010    -0.9540 c3         1 1BH      -0.112100
     14 C5          -1.6470     0.3860     0.1070 c          1 1BH       0.672100
     15 O3          -0.4980     0.8010     0.1770 o          1 1BH      -0.614100
     16 N2          -2.4870     0.4530     1.1480 n          1 1BH      -0.460800
     17 CD          -3.9080     0.1340     1.1790 c5         1 1BH       0.107000
     18 C6          -2.0020     0.9350     2.4260 c5         1 1BH       0.023700
     19 C61         -3.2600     0.9690     3.3140 c5         1 1BH      -0.086400
     20 CG          -4.4140     1.0060     2.3180 c5         1 1BH      -0.094400
     21 C81          2.3050     0.2740     4.2750 c3         1 1BH      -0.039100
     22 C82          2.7010    -0.3490     2.9660 ca         1 1BH      -0.088300
     23 C83          2.3320     0.2170     1.7500 ca         1 1BH      -0.114500
     24 C87          3.4130    -1.5480     2.9520 ca         1 1BH      -0.114500
     25 C84          2.6590    -0.4000     0.5500 ca         1 1BH      -0.123000
     26 C86          3.7520    -2.1640     1.7550 ca         1 1BH      -0.123000
     27 C85          3.3740    -1.5900     0.5470 ca         1 1BH      -0.130000
     28 CC          -0.8380    -0.1550     6.5610 c3         1 1BH      -0.125100
     29 O1          -0.5880     0.3300    -4.3180 os         1 1BH      -0.432900
     30 C26          0.8670     1.8970    -6.7030 ca         1 1BH      -0.101500
     31 C23          2.6000    -0.1980    -7.2570 ca         1 1BH      -0.134000
     32 C25          2.1000     2.1530    -7.2870 ca         1 1BH      -0.134000
     33 O2          -2.7230    -0.2850    -3.9310 o          1 1BH      -0.606000
     34 H11         -1.2160    -0.6570    -6.0380 h1         1 1BH       0.055200
     35 H12         -1.5650     1.0760    -5.9940 h1         1 1BH       0.055200
     36 H8           0.7280    -1.1690     4.5410 h1         1 1BH       0.085700
     37 H9           0.6930     1.3250     6.2890 h1         1 1BH       0.067700
     38 H22          1.0800    -1.4680    -6.4400 ha         1 1BH       0.132500
     39 H24          3.9290     1.3060    -8.0230 ha         1 1BH       0.131000
     40 HN1         -0.3110     0.3100    -1.9780 hn         1 1BH       0.353500
     41 H4          -3.1540     0.0860    -1.4080 h1         1 1BH       0.079700
     42 H411        -1.2430    -2.1920    -0.6800 hc         1 1BH       0.054367
     43 H412        -2.9280    -2.0700    -0.1690 hc         1 1BH       0.054367
     44 H413        -2.5460    -2.2890    -1.8720 hc         1 1BH       0.054367
     45 HD1         -4.0680    -0.9260     1.3970 h1         1 1BH       0.057700
     46 HD2         -4.3930     0.3660     0.2320 h1         1 1BH       0.057700
     47 H6          -1.5830     1.9400     2.3160 h1         1 1BH       0.072700
     48 H611        -3.3240     0.0640     3.9220 hc         1 1BH       0.060200
     49 H612        -3.2460     1.8210     3.9910 hc         1 1BH       0.060200
     50 HG1         -5.3480     0.6360     2.7380 hc         1 1BH       0.058700
     51 HG2         -4.5830     2.0230     1.9600 hc         1 1BH       0.058700
     52 H811         2.3910     1.3640     4.2260 hc         1 1BH       0.056700
     53 H812         2.9880    -0.0600     5.0560 hc         1 1BH       0.056700
     54 H83          1.7680     1.1410     1.7360 ha         1 1BH       0.128500
     55 H87          3.7070    -2.0030     3.8910 ha         1 1BH       0.128500
     56 H84          2.3510     0.0490    -0.3850 ha         1 1BH       0.130500
     57 H86          4.3110    -3.0910     1.7650 ha         1 1BH       0.130500
     58 H85          3.6300    -2.0700    -0.3890 ha         1 1BH       0.127000
     59 HC1         -0.9990     0.0490     7.6200 hc         1 1BH       0.044033
     60 HC2         -1.5930     0.3980     6.0030 hc         1 1BH       0.044033
     61 HC3         -1.0080    -1.2210     6.3890 hc         1 1BH       0.044033
     62 H26          0.1910     2.7170    -6.4930 ha         1 1BH       0.132500
     63 H23          3.2720    -1.0180    -7.4750 ha         1 1BH       0.132000
     64 H25          2.3830     3.1700    -7.5250 ha         1 1BH       0.132000
     65 N3          -0.0860     0.5800     3.8330 ns         1 1BH      -0.566900
     66 HO5          1.4200    -1.3000     6.9820 ho         1 1BH       0.404000
     67 HN3         -0.1010     1.5880     3.8810 hn         1 1BH       0.308500
@<TRIPOS>BOND
     1     1     8 1   
     2     1    29 1   
     3     1    34 1   
     4     1    35 1   
     5     2    11 1   
     6     2    29 1   
     7     2    33 2   
     8     3     5 2   
     9     4     7 1   
    10     4    66 1   
    11     5    18 1   
    12     5    65 1   
    13     6     7 1   
    14     6    21 1   
    15     6    36 1   
    16     6    65 1   
    17     7    28 1   
    18     7    37 1   
    19     8     9 ar  
    20     8    30 ar  
    21     9    31 ar  
    22     9    38 1   
    23    10    31 ar  
    24    10    32 ar  
    25    10    39 1   
    26    11    12 1   
    27    11    40 1   
    28    12    13 1   
    29    12    14 1   
    30    12    41 1   
    31    13    42 1   
    32    13    43 1   
    33    13    44 1   
    34    14    15 2   
    35    14    16 1   
    36    16    17 1   
    37    16    18 1   
    38    17    20 1   
    39    17    45 1   
    40    17    46 1   
    41    18    19 1   
    42    18    47 1   
    43    19    20 1   
    44    19    48 1   
    45    19    49 1   
    46    20    50 1   
    47    20    51 1   
    48    21    22 1   
    49    21    52 1   
    50    21    53 1   
    51    22    23 ar  
    52    22    24 ar  
    53    23    25 ar  
    54    23    54 1   
    55    24    26 ar  
    56    24    55 1   
    57    25    27 ar  
    58    25    56 1   
    59    26    27 ar  
    60    26    57 1   
    61    27    58 1   
    62    28    59 1   
    63    28    60 1   
    64    28    61 1   
    65    30    32 ar  
    66    30    62 1   
    67    31    63 1   
    68    32    64 1   
    69    65    67 1   
@<TRIPOS>SUBSTRUCTURE
     1 1BH         1 TEMP              0 ****  ****    0 ROOT
