@<TRIPOS>MOLECULE
1BH
   67    69     1     0     0
SMALL
No Charge or Current Charge


@<TRIPOS>ATOM
      1 C1          -0.9140    -0.2960    -5.9530 c3         1 1BH       0.231900
      2 C3          -1.8330    -0.2920    -3.7470 c          1 1BH       0.642100
      3 O4          -0.7500    -1.4600     2.6920 o          1 1BH      -0.587100
      4 O5           1.4460    -1.6700     6.9340 oh         1 1BH      -0.652000
      5 C7          -0.8150    -0.2890     3.0460 c          1 1BH       0.605100
      6 C8           0.9760    -0.4970     4.8200 c3         1 1BH       0.078700
      7 C9           0.4720    -0.8680     6.2510 c3         1 1BH       0.152300
      8 C21          0.4540    -0.2610    -6.6230 ca         1 1BH      -0.101300
      9 C22          1.1330    -1.4610    -6.9140 ca         1 1BH      -0.083500
     10 C24          2.9860    -0.1980    -7.8630 ca         1 1BH      -0.098000
     11 N1          -1.4490    -0.2580    -2.4390 ns         1 1BH      -0.496900
     12 C4          -2.3620    -0.2740    -1.2760 c3         1 1BH       0.060700
     13 C41         -2.9520    -1.6900    -1.0680 c3         1 1BH      -0.112100
     14 C5          -1.6260     0.2510     0.0010 c          1 1BH       0.605100
     15 O3          -0.4060     0.3930     0.0170 o          1 1BH      -0.614100
     16 N2          -2.3830     0.5180     1.1640 n          1 1BH      -0.393800
     17 CD          -3.8350     0.8150     1.1440 c5         1 1BH       0.107000
     18 C6          -1.7460     0.8280     2.4760 c5         1 1BH       0.023700
     19 C61         -2.9980     0.9440     3.3940 c5         1 1BH      -0.086400
     20 CG          -4.0130     1.6300     2.4490 c5         1 1BH      -0.094400
     21 C81          2.3080     0.2980     4.8280 c3         1 1BH      -0.039100
     22 C82          2.7580     0.7230     3.4320 ca         1 1BH      -0.088300
     23 C83          2.7470     2.0830     3.0600 ca         1 1BH      -0.096500
     24 C87          3.1790    -0.2450     2.4990 ca         1 1BH      -0.096500
     25 C84          3.1510     2.4680     1.7700 ca         1 1BH      -0.105000
     26 C86          3.5830     0.1410     1.2090 ca         1 1BH      -0.105000
     27 C85          3.5680     1.4980     0.8430 ca         1 1BH      -0.112000
     28 CC          -0.8690    -1.6340     6.2590 c3         1 1BH      -0.125100
     29 O1          -0.7220    -0.2680    -4.5300 os         1 1BH      -0.456100
     30 C26          1.0530     0.9710    -6.9540 ca         1 1BH      -0.083500
     31 C23          2.3950    -1.4290    -7.5330 ca         1 1BH      -0.116000
     32 C25          2.3150     1.0020    -7.5720 ca         1 1BH      -0.116000
     33 O2          -2.9870    -0.3330    -4.1410 o          1 1BH      -0.557000
     34 H11         -1.4480    -1.2060    -6.2560 h1         1 1BH       0.055200
     35 H12         -1.5060     0.5680    -6.2840 h1         1 1BH       0.055200
     36 H8           1.1710    -1.4400     4.2900 h1         1 1BH       0.085700
     37 H9           0.3210     0.0710     6.8040 h1         1 1BH       0.067700
     38 H22          0.6830    -2.4190    -6.6600 ha         1 1BH       0.114500
     39 H24          3.9630    -0.1740    -8.3410 ha         1 1BH       0.113000
     40 HN1         -0.4510    -0.2010    -2.2710 hn         1 1BH       0.353500
     41 H4          -3.1830     0.4220    -1.4870 h1         1 1BH       0.079700
     42 H411        -2.1530    -2.4140    -0.8670 hc         1 1BH       0.054367
     43 H412        -3.6490    -1.7140    -0.2240 hc         1 1BH       0.054367
     44 H413        -3.4970    -2.0210    -1.9600 hc         1 1BH       0.054367
     45 HD1         -4.4240    -0.1110     1.1760 h1         1 1BH       0.057700
     46 HD2         -4.1400     1.3960     0.2640 h1         1 1BH       0.057700
     47 H6          -1.1900     1.7730     2.4190 h1         1 1BH       0.072700
     48 H611        -3.3620    -0.0420     3.7100 hc         1 1BH       0.060200
     49 H612        -2.8030     1.5270     4.3020 hc         1 1BH       0.060200
     50 HG1         -5.0410     1.5950     2.8280 hc         1 1BH       0.058700
     51 HG2         -3.7560     2.6850     2.2930 hc         1 1BH       0.058700
     52 H811         2.1910     1.1780     5.4730 hc         1 1BH       0.056700
     53 H812         3.0930    -0.3120     5.2900 hc         1 1BH       0.056700
     54 H83          2.4230     2.8420     3.7680 ha         1 1BH       0.110500
     55 H87          3.1920    -1.2980     2.7720 ha         1 1BH       0.110500
     56 H84          3.1380     3.5190     1.4880 ha         1 1BH       0.112500
     57 H86          3.9040    -0.6110     0.4920 ha         1 1BH       0.112500
     58 H85          3.8790     1.7960    -0.1550 ha         1 1BH       0.109000
     59 HC1         -1.1480    -1.9130     7.2820 hc         1 1BH       0.044033
     60 HC2         -1.6770    -1.0120     5.8550 hc         1 1BH       0.044033
     61 HC3         -0.8040    -2.5480     5.6560 hc         1 1BH       0.044033
     62 H26          0.5410     1.9040    -6.7300 ha         1 1BH       0.114500
     63 H23          2.9150    -2.3590    -7.7560 ha         1 1BH       0.114000
     64 H25          2.7720     1.9560    -7.8260 ha         1 1BH       0.114000
     65 N3          -0.0410     0.2450     4.0580 ns         1 1BH      -0.499900
     66 HO5          1.3950    -2.5740     6.5550 ho         1 1BH       0.443000
     67 HN3         -0.1700     1.2280     4.2610 hn         1 1BH       0.308500
@<TRIPOS>BOND
     1     1     8 1   
     2     1    29 1   
     3     1    34 1   
     4     1    35 1   
     5     2    11 1   
     6     2    29 1   
     7     2    33 2   
     8     3     5 2   
     9     4     7 1   
    10     4    66 1   
    11     5    18 1   
    12     5    65 1   
    13     6     7 1   
    14     6    21 1   
    15     6    36 1   
    16     6    65 1   
    17     7    28 1   
    18     7    37 1   
    19     8     9 ar  
    20     8    30 ar  
    21     9    31 ar  
    22     9    38 1   
    23    10    31 ar  
    24    10    32 ar  
    25    10    39 1   
    26    11    12 1   
    27    11    40 1   
    28    12    13 1   
    29    12    14 1   
    30    12    41 1   
    31    13    42 1   
    32    13    43 1   
    33    13    44 1   
    34    14    15 2   
    35    14    16 1   
    36    16    17 1   
    37    16    18 1   
    38    17    20 1   
    39    17    45 1   
    40    17    46 1   
    41    18    19 1   
    42    18    47 1   
    43    19    20 1   
    44    19    48 1   
    45    19    49 1   
    46    20    50 1   
    47    20    51 1   
    48    21    22 1   
    49    21    52 1   
    50    21    53 1   
    51    22    23 ar  
    52    22    24 ar  
    53    23    25 ar  
    54    23    54 1   
    55    24    26 ar  
    56    24    55 1   
    57    25    27 ar  
    58    25    56 1   
    59    26    27 ar  
    60    26    57 1   
    61    27    58 1   
    62    28    59 1   
    63    28    60 1   
    64    28    61 1   
    65    30    32 ar  
    66    30    62 1   
    67    31    63 1   
    68    32    64 1   
    69    65    67 1   
@<TRIPOS>SUBSTRUCTURE
     1 1BH         1 TEMP              0 ****  ****    0 ROOT
