@<TRIPOS>MOLECULE
1BI
   74    79     1     0     0
SMALL
No Charge or Current Charge


@<TRIPOS>ATOM
      1 C1           1.7660     0.5620     0.5290 ca         1 1BI      -0.150600
      2 C2           0.6170    -0.1990     0.1930 ca         1 1BI      -0.055000
      3 C3          -0.6210     0.4540     0.0450 ca         1 1BI      -0.050200
      4 C4          -0.7390     1.8020     0.2320 ca         1 1BI      -0.053800
      5 C5           0.3660     2.5900     0.5870 ca         1 1BI      -0.071000
      6 C6           1.6210     1.9660     0.7260 ca         1 1BI      -0.108000
      7 N7          -1.8750    -0.0720    -0.2450 na         1 1BI      -0.062700
      8 C8          -2.8600     0.9460    -0.1490 cc         1 1BI       0.050700
      9 C9          -2.1410     2.1400     0.0450 cd         1 1BI      -0.111400
     10 C10         -2.7190     3.5490    -0.0950 c6         1 1BI       0.010500
     11 C11         -2.8080     4.2620     1.2810 c6         1 1BI      -0.068400
     12 C12         -3.4240     5.6760     1.1450 c6         1 1BI      -0.075400
     13 C13         -2.6440     6.5330     0.1170 c6         1 1BI      -0.074400
     14 C14         -2.5630     5.8260    -1.2590 c6         1 1BI      -0.075400
     15 C15         -1.9370     4.4150    -1.1250 c6         1 1BI      -0.068400
     16 C16         -4.3090     0.7470    -0.1920 cc         1 1BI      -0.139800
     17 C17         -5.0440    -0.4170    -0.5380 cc         1 1BI      -0.182000
     18 C18         -6.3660    -0.1280    -0.3650 cd         1 1BI       0.116900
     19 O19         -6.5430     1.1530     0.0880 os         1 1BI      -0.232000
     20 C20         -5.2670     1.6560     0.2030 cd         1 1BI       0.166900
     21 C21          3.0990    -0.1450     0.6800 c          1 1BI       0.652700
     22 O22          3.2080    -1.3520     0.5290 o          1 1BI      -0.570100
     23 N23          4.1640     0.6410     0.9870 ns         1 1BI      -0.581300
     24 C24         -2.0310    -1.4960    -0.6150 c3         1 1BI      -0.009400
     25 C25         -2.5590    -2.3980     0.5200 c          1 1BI       0.586100
     26 O26         -2.5890    -2.0150     1.6850 o          1 1BI      -0.575100
     27 N27         -3.0680    -3.6730     0.1730 n          1 1BI      -0.413800
     28 C28         -3.6000    -4.5670     1.2540 c6         1 1BI       0.060000
     29 C29         -4.3600    -5.8190     0.7500 c6         1 1BI       0.132600
     30 O30         -3.6110    -6.4790    -0.2850 os         1 1BI      -0.442000
     31 C31         -3.4300    -5.6430    -1.4410 c6         1 1BI       0.132600
     32 C32         -2.6180    -4.3720    -1.0780 c6         1 1BI       0.060000
     33 S36          5.7560     0.1740     1.1870 sy         1 1BI       1.182300
     34 O37          6.4860     1.4210     1.4370 o          1 1BI      -0.529000
     35 O38          5.7520    -0.9200     2.1660 o          1 1BI      -0.529000
     36 C39          6.2550    -0.4810    -0.4190 ca         1 1BI      -0.292500
     37 C40          6.6990     0.3980    -1.4300 ca         1 1BI      -0.003000
     38 C41          7.0820    -0.1100    -2.6830 ca         1 1BI      -0.133000
     39 C42          7.0240    -1.4910    -2.9350 ca         1 1BI      -0.054000
     40 C43          6.5790    -2.3670    -1.9310 ca         1 1BI      -0.133000
     41 C44          6.1950    -1.8680    -0.6740 ca         1 1BI      -0.003000
     42 H1           0.6980    -1.2750     0.0640 ha         1 1BI       0.134000
     43 H2           0.2680     3.6540     0.7800 ha         1 1BI       0.122000
     44 H3           2.4690     2.5880     1.0020 ha         1 1BI       0.109000
     45 H4          -3.7210     3.4970    -0.5290 hc         1 1BI       0.049700
     46 H5          -3.4110     3.6620     1.9760 hc         1 1BI       0.042200
     47 H6          -1.8090     4.3390     1.7310 hc         1 1BI       0.042200
     48 H7          -4.4750     5.5930     0.8340 hc         1 1BI       0.037950
     49 H8          -3.4270     6.1770     2.1220 hc         1 1BI       0.037950
     50 H9          -3.1280     7.5130     0.0040 hc         1 1BI       0.038200
     51 H10         -1.6290     6.7280     0.4920 hc         1 1BI       0.038200
     52 H11         -3.5690     5.7470    -1.6940 hc         1 1BI       0.037950
     53 H12         -1.9690     6.4330    -1.9560 hc         1 1BI       0.037950
     54 H13         -0.8850     4.5250    -0.8430 hc         1 1BI       0.042200
     55 H14         -1.9410     3.9170    -2.1050 hc         1 1BI       0.042200
     56 H15         -4.6700    -1.3690    -0.8860 ha         1 1BI       0.145000
     57 H16         -7.2510    -0.7320    -0.5210 h4         1 1BI       0.056100
     58 H17         -5.1910     2.6410     0.6390 h4         1 1BI       0.067100
     59 H18          4.0520     1.6340     1.0790 hn         1 1BI       0.347500
     60 H19         -2.7010    -1.5590    -1.4770 h1         1 1BI       0.079700
     61 H20         -1.0760    -1.9110    -0.9510 h1         1 1BI       0.079700
     62 H21         -2.7580    -4.8970     1.8780 h1         1 1BI       0.065700
     63 H22         -4.2750    -3.9920     1.9040 h1         1 1BI       0.065700
     64 H23         -4.5230    -6.5180     1.5820 h1         1 1BI       0.054700
     65 H24         -5.3440    -5.5270     0.3540 h1         1 1BI       0.054700
     66 H25         -2.9050    -6.2120    -2.2220 h1         1 1BI       0.054700
     67 H26         -4.4160    -5.3560    -1.8360 h1         1 1BI       0.054700
     68 H27         -2.6720    -3.6910    -1.9370 h1         1 1BI       0.065700
     69 H28         -1.5630    -4.6560    -0.9570 h1         1 1BI       0.065700
     70 H29          6.7480     1.4720    -1.2510 ha         1 1BI       0.139000
     71 H30          7.4240     0.5690    -3.4610 ha         1 1BI       0.119000
     72 H31          7.3200    -1.8810    -3.9060 ha         1 1BI       0.115000
     73 H32          6.5310    -3.4360    -2.1260 ha         1 1BI       0.119000
     74 H33          5.8470    -2.5600     0.0910 ha         1 1BI       0.139000
@<TRIPOS>BOND
     1     1     2 ar  
     2     1     6 ar  
     3     1    21 1   
     4     2     3 ar  
     5     2    42 1   
     6     3     4 ar  
     7     3     7 1   
     8     4     5 ar  
     9     4     9 1   
    10     5     6 ar  
    11     5    43 1   
    12     6    44 1   
    13     7     8 1   
    14     7    24 1   
    15     8     9 2   
    16     8    16 1   
    17     9    10 1   
    18    10    11 1   
    19    10    15 1   
    20    10    45 1   
    21    11    12 1   
    22    11    46 1   
    23    11    47 1   
    24    12    13 1   
    25    12    48 1   
    26    12    49 1   
    27    13    14 1   
    28    13    50 1   
    29    13    51 1   
    30    14    15 1   
    31    14    52 1   
    32    14    53 1   
    33    15    54 1   
    34    15    55 1   
    35    16    17 1   
    36    16    20 2   
    37    17    18 2   
    38    17    56 1   
    39    18    19 1   
    40    18    57 1   
    41    19    20 1   
    42    20    58 1   
    43    21    22 2   
    44    21    23 1   
    45    23    33 1   
    46    23    59 1   
    47    24    25 1   
    48    24    60 1   
    49    24    61 1   
    50    25    26 2   
    51    25    27 1   
    52    27    28 1   
    53    27    32 1   
    54    28    29 1   
    55    28    62 1   
    56    28    63 1   
    57    29    30 1   
    58    29    64 1   
    59    29    65 1   
    60    30    31 1   
    61    31    32 1   
    62    31    66 1   
    63    31    67 1   
    64    32    68 1   
    65    32    69 1   
    66    33    34 2   
    67    33    35 2   
    68    33    36 1   
    69    36    37 ar  
    70    36    41 ar  
    71    37    38 ar  
    72    37    70 1   
    73    38    39 ar  
    74    38    71 1   
    75    39    40 ar  
    76    39    72 1   
    77    40    41 ar  
    78    40    73 1   
    79    41    74 1   
@<TRIPOS>SUBSTRUCTURE
     1 1BI         1 TEMP              0 ****  ****    0 ROOT
