@<TRIPOS>MOLECULE
1BI
   74    79     1     0     0
SMALL
abcg2


@<TRIPOS>ATOM
      1 C1           1.8860     0.6100     0.4370 ca         1 1BI      -0.150600
      2 C2           0.8490    -0.1970    -0.0170 ca         1 1BI      -0.055000
      3 C3          -0.3970     0.3800    -0.1960 ca         1 1BI      -0.050200
      4 C4          -0.6480     1.7440     0.0750 ca         1 1BI      -0.053800
      5 C5           0.4090     2.5350     0.5420 ca         1 1BI      -0.071000
      6 C6           1.6530     1.9710     0.7190 ca         1 1BI      -0.108000
      7 N7          -1.5580    -0.1810    -0.6470 na         1 1BI      -0.062700
      8 C8          -2.5460     0.7790    -0.6140 cc         1 1BI       0.050700
      9 C9          -2.0300     1.9840    -0.2040 cd         1 1BI      -0.111400
     10 C10         -2.7800     3.2740    -0.0930 c6         1 1BI       0.010500
     11 C11         -2.9230     3.7330     1.3640 c6         1 1BI      -0.068400
     12 C12         -3.7230     5.0270     1.4690 c6         1 1BI      -0.075400
     13 C13         -3.1100     6.1280     0.6100 c6         1 1BI      -0.074400
     14 C14         -2.9780     5.6780    -0.8420 c6         1 1BI      -0.075400
     15 C15         -2.1710     4.3880    -0.9540 c6         1 1BI      -0.068400
     16 C16         -3.9130     0.4500    -0.9900 cc         1 1BI      -0.139800
     17 C17         -4.3880    -0.0830    -2.2360 cc         1 1BI      -0.182000
     18 C18         -5.7250    -0.2150    -2.0990 cd         1 1BI       0.116900
     19 O19         -6.1120     0.1890    -0.8710 os         1 1BI      -0.232000
     20 C20         -5.0140     0.5840    -0.2070 cd         1 1BI       0.166900
     21 C21          3.2040    -0.0410     0.6110 c          1 1BI       0.652700
     22 O22          3.3650    -1.2430     0.5580 o          1 1BI      -0.570100
     23 N23          4.2760     0.7960     0.8270 ns         1 1BI      -0.581300
     24 C24         -1.8010    -1.5900    -0.7420 c3         1 1BI      -0.009400
     25 C25         -2.3270    -2.1360     0.5890 c          1 1BI       0.586100
     26 O26         -2.3980    -1.4040     1.5600 o          1 1BI      -0.575100
     27 N27         -2.6890    -3.4320     0.6090 n          1 1BI      -0.413800
     28 C28         -3.2980    -4.0280     1.7860 c6         1 1BI       0.060000
     29 C29         -4.6870    -4.5310     1.4300 c6         1 1BI       0.132600
     30 O30         -4.6520    -5.4270     0.3400 os         1 1BI      -0.442000
     31 C31         -4.0770    -4.8370    -0.8020 c6         1 1BI       0.132600
     32 C32         -2.6660    -4.3440    -0.5220 c6         1 1BI       0.060000
     33 S36          5.8420     0.2410     1.0510 sy         1 1BI       1.182300
     34 O37          6.6140     1.4600     1.2070 o          1 1BI      -0.529000
     35 O38          5.8490    -0.7570     2.0980 o          1 1BI      -0.529000
     36 C39          6.2650    -0.5180    -0.4860 ca         1 1BI      -0.292500
     37 C40          6.6060     0.3020    -1.5550 ca         1 1BI      -0.003000
     38 C41          6.9470    -0.2840    -2.7630 ca         1 1BI      -0.133000
     39 C42          6.9520    -1.6680    -2.8880 ca         1 1BI      -0.054000
     40 C43          6.6160    -2.4730    -1.8080 ca         1 1BI      -0.133000
     41 C44          6.2660    -1.9010    -0.5940 ca         1 1BI      -0.003000
     42 H1           1.0240    -1.2430    -0.2280 ha         1 1BI       0.134000
     43 H2           0.2610     3.5790     0.7810 ha         1 1BI       0.122000
     44 H3           2.4400     2.6050     1.1060 ha         1 1BI       0.109000
     45 H4          -3.7930     3.0950    -0.4730 hc         1 1BI       0.049700
     46 H5          -3.4000     2.9420     1.9500 hc         1 1BI       0.042200
     47 H6          -1.9310     3.8870     1.8020 hc         1 1BI       0.042200
     48 H7          -4.7530     4.8460     1.1430 hc         1 1BI       0.037950
     49 H8          -3.7800     5.3460     2.5130 hc         1 1BI       0.037950
     50 H9          -3.7130     7.0370     0.6700 hc         1 1BI       0.038200
     51 H10         -2.1190     6.3820     1.0020 hc         1 1BI       0.038200
     52 H11         -3.9770     5.5160    -1.2620 hc         1 1BI       0.037950
     53 H12         -2.5120     6.4630    -1.4430 hc         1 1BI       0.037950
     54 H13         -1.1410     4.5840    -0.6400 hc         1 1BI       0.042200
     55 H14         -2.1220     4.0600    -1.9950 hc         1 1BI       0.042200
     56 H15         -3.8050    -0.3120    -3.1140 ha         1 1BI       0.145000
     57 H16         -6.5000    -0.5620    -2.7640 h4         1 1BI       0.056100
     58 H17         -5.1470     0.9210     0.8080 h4         1 1BI       0.067100
     59 H18          4.1950     1.8000     0.7320 hn         1 1BI       0.347500
     60 H19         -2.5100    -1.7810    -1.5470 h1         1 1BI       0.079700
     61 H20         -0.8770    -2.0960    -1.0260 h1         1 1BI       0.079700
     62 H21         -2.6720    -4.8560     2.1330 h1         1 1BI       0.065700
     63 H22         -3.3590    -3.2950     2.5860 h1         1 1BI       0.065700
     64 H23         -5.1190    -5.0660     2.2770 h1         1 1BI       0.054700
     65 H24         -5.3360    -3.6740     1.2050 h1         1 1BI       0.054700
     66 H25         -4.0570    -5.5930    -1.5880 h1         1 1BI       0.054700
     67 H26         -4.6890    -3.9940    -1.1560 h1         1 1BI       0.054700
     68 H27         -2.2600    -3.8760    -1.4140 h1         1 1BI       0.065700
     69 H28         -2.0140    -5.1890    -0.2800 h1         1 1BI       0.065700
     70 H29          6.6090     1.3800    -1.4580 ha         1 1BI       0.139000
     71 H30          7.2140     0.3400    -3.6040 ha         1 1BI       0.119000
     72 H31          7.2240    -2.1210    -3.8330 ha         1 1BI       0.115000
     73 H32          6.6240    -3.5500    -1.9080 ha         1 1BI       0.119000
     74 H33          6.0020    -2.5250     0.2470 ha         1 1BI       0.139000
@<TRIPOS>BOND
     1     1     2 ar  
     2     1     6 ar  
     3     1    21 1   
     4     2     3 ar  
     5     2    42 1   
     6     3     4 ar  
     7     3     7 1   
     8     4     5 ar  
     9     4     9 1   
    10     5     6 ar  
    11     5    43 1   
    12     6    44 1   
    13     7     8 1   
    14     7    24 1   
    15     8     9 2   
    16     8    16 1   
    17     9    10 1   
    18    10    11 1   
    19    10    15 1   
    20    10    45 1   
    21    11    12 1   
    22    11    46 1   
    23    11    47 1   
    24    12    13 1   
    25    12    48 1   
    26    12    49 1   
    27    13    14 1   
    28    13    50 1   
    29    13    51 1   
    30    14    15 1   
    31    14    52 1   
    32    14    53 1   
    33    15    54 1   
    34    15    55 1   
    35    16    17 1   
    36    16    20 2   
    37    17    18 2   
    38    17    56 1   
    39    18    19 1   
    40    18    57 1   
    41    19    20 1   
    42    20    58 1   
    43    21    22 2   
    44    21    23 1   
    45    23    33 1   
    46    23    59 1   
    47    24    25 1   
    48    24    60 1   
    49    24    61 1   
    50    25    26 2   
    51    25    27 1   
    52    27    28 1   
    53    27    32 1   
    54    28    29 1   
    55    28    62 1   
    56    28    63 1   
    57    29    30 1   
    58    29    64 1   
    59    29    65 1   
    60    30    31 1   
    61    31    32 1   
    62    31    66 1   
    63    31    67 1   
    64    32    68 1   
    65    32    69 1   
    66    33    34 2   
    67    33    35 2   
    68    33    36 1   
    69    36    37 ar  
    70    36    41 ar  
    71    37    38 ar  
    72    37    70 1   
    73    38    39 ar  
    74    38    71 1   
    75    39    40 ar  
    76    39    72 1   
    77    40    41 ar  
    78    40    73 1   
    79    41    74 1   
@<TRIPOS>SUBSTRUCTURE
     1 1BI         1 TEMP              0 ****  ****    0 ROOT
