@<TRIPOS>MOLECULE
1BJ
   42    45     1     0     0
SMALL
No Charge or Current Charge


@<TRIPOS>ATOM
      1 N1          -1.0000     1.5870     0.9170 nb         1 1BJ      -0.258000
      2 C2          -0.6900     0.4720     0.2330 ca         1 1BJ       0.413900
      3 N3           0.5190     0.1180    -0.2240 nb         1 1BJ      -0.307000
      4 C4           0.0130     2.4350     1.1590 ca         1 1BJ       0.156900
      5 C5           1.3150     2.1560     0.7210 ca         1 1BJ      -0.280000
      6 C6           1.5510     0.9590     0.0130 ca         1 1BJ       0.296500
      7 N7           2.8630     0.7090    -0.4060 na         1 1BJ       0.049100
      8 N8          -1.6990    -0.4390    -0.0380 nu         1 1BJ      -0.923100
      9 C9          -3.1350    -0.2530     0.2250 c6         1 1BJ       0.246500
     10 C10         -3.8340    -1.6370     0.2360 c6         1 1BJ      -0.090400
     11 C11         -5.3650    -1.4920     0.4400 c6         1 1BJ      -0.090400
     12 C12         -5.9940    -0.5760    -0.6400 c6         1 1BJ       0.168300
     13 C13         -5.2940     0.8070    -0.6610 c6         1 1BJ      -0.090400
     14 C14         -3.7630     0.6620    -0.8620 c6         1 1BJ      -0.090400
     15 O15         -7.3900    -0.4140    -0.3830 oh         1 1BJ      -0.659000
     16 C16          4.7460     0.9280    -1.4040 cc         1 1BJ       0.377800
     17 N17          3.5600     1.5470    -1.2830 nd         1 1BJ      -0.508100
     18 C18          4.8070    -0.2810    -0.6170 ca         1 1BJ      -0.234900
     19 C19          3.6000    -0.3860     0.0000 ca         1 1BJ      -0.005200
     20 C20          3.2950    -1.4450     0.8670 ca         1 1BJ      -0.096000
     21 C21          4.2940    -2.4210     1.0780 ca         1 1BJ      -0.086000
     22 C22          5.5520    -2.3120     0.4320 ca         1 1BJ      -0.138000
     23 C23          5.8240    -1.2280    -0.4310 ca         1 1BJ      -0.044000
     24 H1          -0.2210     3.3440     1.7110 h4         1 1BJ       0.022100
     25 H2           2.1250     2.8510     0.9250 ha         1 1BJ       0.159000
     26 H3          -1.4030    -1.2610    -0.5640 hn         1 1BJ       0.501000
     27 H4          -3.2890     0.2080     1.2140 h1         1 1BJ       0.080700
     28 H5          -3.6410    -2.1650    -0.7080 hc         1 1BJ       0.049450
     29 H6          -3.4140    -2.2600     1.0370 hc         1 1BJ       0.049450
     30 H7          -5.8370    -2.4840     0.4080 hc         1 1BJ       0.053700
     31 H8          -5.5660    -1.0830     1.4400 hc         1 1BJ       0.053700
     32 H9          -5.8510    -1.0530    -1.6220 h1         1 1BJ       0.026700
     33 H10         -5.7120     1.4280    -1.4650 hc         1 1BJ       0.053700
     34 H11         -5.4910     1.3400     0.2800 hc         1 1BJ       0.053700
     35 H12         -3.2950     1.6550    -0.8360 hc         1 1BJ       0.049450
     36 H13         -3.5620     0.2490    -1.8600 hc         1 1BJ       0.049450
     37 H14         -7.7580     0.0950    -1.1380 ho         1 1BJ       0.443000
     38 H15          5.4840     1.3880    -2.0480 h4         1 1BJ       0.053800
     39 H16          2.3280    -1.5170     1.3590 ha         1 1BJ       0.144000
     40 H17          4.0980    -3.2600     1.7420 ha         1 1BJ       0.113000
     41 H18          6.3140    -3.0690     0.6030 ha         1 1BJ       0.116000
     42 H19          6.7860    -1.1320    -0.9310 ha         1 1BJ       0.119000
@<TRIPOS>BOND
     1     1     2 ar  
     2     1     4 ar  
     3     2     3 ar  
     4     2     8 1   
     5     3     6 ar  
     6     4     5 ar  
     7     4    24 1   
     8     5     6 ar  
     9     5    25 1   
    10     6     7 1   
    11     7    17 1   
    12     7    19 1   
    13     8     9 1   
    14     8    26 1   
    15     9    10 1   
    16     9    14 1   
    17     9    27 1   
    18    10    11 1   
    19    10    28 1   
    20    10    29 1   
    21    11    12 1   
    22    11    30 1   
    23    11    31 1   
    24    12    13 1   
    25    12    15 1   
    26    12    32 1   
    27    13    14 1   
    28    13    33 1   
    29    13    34 1   
    30    14    35 1   
    31    14    36 1   
    32    15    37 1   
    33    16    17 2   
    34    16    18 1   
    35    16    38 1   
    36    18    19 ar  
    37    18    23 ar  
    38    19    20 ar  
    39    20    21 ar  
    40    20    39 1   
    41    21    22 ar  
    42    21    40 1   
    43    22    23 ar  
    44    22    41 1   
    45    23    42 1   
@<TRIPOS>SUBSTRUCTURE
     1 1BJ         1 TEMP              0 ****  ****    0 ROOT
