@<TRIPOS>MOLECULE
1BJ
   42    45     1     0     0
SMALL
abcg2


@<TRIPOS>ATOM
      1 N1          -1.0810     1.9200     0.4560 nb         1 1BJ      -0.258000
      2 C2          -0.6530     0.6680     0.2770 ca         1 1BJ       0.413900
      3 N3           0.6300     0.3010     0.1450 nb         1 1BJ      -0.307000
      4 C4          -0.1380     2.8510     0.5060 ca         1 1BJ       0.156900
      5 C5           1.2110     2.5960     0.3850 ca         1 1BJ      -0.280000
      6 C6           1.5360     1.2500     0.2020 ca         1 1BJ       0.296500
      7 N7           2.8600     0.8480     0.0760 na         1 1BJ       0.049100
      8 N8          -1.5590    -0.3230     0.2380 nu         1 1BJ      -0.923100
      9 C9          -2.9920    -0.1350     0.3120 c6         1 1BJ       0.246500
     10 C10         -3.6480    -1.4280     0.7910 c6         1 1BJ      -0.090400
     11 C11         -5.1610    -1.2700     0.8940 c6         1 1BJ      -0.090400
     12 C12         -5.7600    -0.8200    -0.4290 c6         1 1BJ       0.168300
     13 C13         -5.1070     0.4760    -0.8960 c6         1 1BJ      -0.090400
     14 C14         -3.5960     0.3110    -1.0200 c6         1 1BJ      -0.090400
     15 O15         -7.1560    -0.6830    -0.2510 oh         1 1BJ      -0.659000
     16 C16          4.9670     1.1670    -0.0100 cc         1 1BJ       0.377800
     17 N17          3.8330     1.7840     0.1040 nd         1 1BJ      -0.508100
     18 C18          4.7770    -0.2410    -0.1190 ca         1 1BJ      -0.234900
     19 C19          3.3870    -0.4190    -0.0600 ca         1 1BJ      -0.005200
     20 C20          2.8150    -1.6930    -0.1340 ca         1 1BJ      -0.096000
     21 C21          3.6830    -2.7600    -0.2660 ca         1 1BJ      -0.086000
     22 C22          5.0760    -2.5920    -0.3250 ca         1 1BJ      -0.138000
     23 C23          5.6360    -1.3350    -0.2530 ca         1 1BJ      -0.044000
     24 H1          -0.4800     3.8700     0.6520 h4         1 1BJ       0.022100
     25 H2           1.9480     3.3810     0.4300 ha         1 1BJ       0.159000
     26 H3          -1.2090    -1.2410     0.0150 hn         1 1BJ       0.501000
     27 H4          -3.1890     0.6440     1.0550 h1         1 1BJ       0.080700
     28 H5          -3.4090    -2.2350     0.0880 hc         1 1BJ       0.049450
     29 H6          -3.2340    -1.7170     1.7600 hc         1 1BJ       0.049450
     30 H7          -5.6110    -2.2150     1.2080 hc         1 1BJ       0.053700
     31 H8          -5.3980    -0.5290     1.6660 hc         1 1BJ       0.053700
     32 H9          -5.5450    -1.5970    -1.1810 h1         1 1BJ       0.026700
     33 H10         -5.5290     0.7840    -1.8570 hc         1 1BJ       0.053700
     34 H11         -5.3350     1.2710    -0.1770 hc         1 1BJ       0.053700
     35 H12         -3.1350     1.2470    -1.3380 hc         1 1BJ       0.049450
     36 H13         -3.3640    -0.4390    -1.7840 hc         1 1BJ       0.049450
     37 H14         -7.5370    -0.3880    -1.0830 ho         1 1BJ       0.443000
     38 H15          5.8950     1.7180    -0.0130 h4         1 1BJ       0.053800
     39 H16          1.7490    -1.8400    -0.0920 ha         1 1BJ       0.144000
     40 H17          3.2720    -3.7590    -0.3250 ha         1 1BJ       0.113000
     41 H18          5.7120    -3.4610    -0.4300 ha         1 1BJ       0.116000
     42 H19          6.7080    -1.1950    -0.2970 ha         1 1BJ       0.119000
@<TRIPOS>BOND
     1     1     2 ar  
     2     1     4 ar  
     3     2     3 ar  
     4     2     8 1   
     5     3     6 ar  
     6     4     5 ar  
     7     4    24 1   
     8     5     6 ar  
     9     5    25 1   
    10     6     7 1   
    11     7    17 1   
    12     7    19 1   
    13     8     9 1   
    14     8    26 1   
    15     9    10 1   
    16     9    14 1   
    17     9    27 1   
    18    10    11 1   
    19    10    28 1   
    20    10    29 1   
    21    11    12 1   
    22    11    30 1   
    23    11    31 1   
    24    12    13 1   
    25    12    15 1   
    26    12    32 1   
    27    13    14 1   
    28    13    33 1   
    29    13    34 1   
    30    14    35 1   
    31    14    36 1   
    32    15    37 1   
    33    16    17 2   
    34    16    18 1   
    35    16    38 1   
    36    18    19 ar  
    37    18    23 ar  
    38    19    20 ar  
    39    20    21 ar  
    40    20    39 1   
    41    21    22 ar  
    42    21    40 1   
    43    22    23 ar  
    44    22    41 1   
    45    23    42 1   
@<TRIPOS>SUBSTRUCTURE
     1 1BJ         1 TEMP              0 ****  ****    0 ROOT
