@<TRIPOS>MOLECULE
1BK
   58    61     1     0     0
SMALL
abcg2


@<TRIPOS>ATOM
      1 N1          -4.8720    -0.3180     0.5640 nu         1 1BK      -0.914100
      2 C2          -4.1070     0.7830     0.4450 ca         1 1BK       0.407900
      3 N3          -4.7060     1.9720     0.3590 nb         1 1BK      -0.254000
      4 C4          -3.8980     3.0200     0.2640 ca         1 1BK       0.154900
      5 C5          -2.5210     2.9380     0.2420 ca         1 1BK      -0.275000
      6 C6          -2.0120     1.6410     0.3340 ca         1 1BK       0.294500
      7 N7          -2.7820     0.5810     0.4380 nb         1 1BK      -0.304000
      8 N8          -0.6430     1.4090     0.3100 na         1 1BK       0.050100
      9 N9           0.1960     2.4590     0.1640 nc         1 1BK      -0.519100
     10 C10          1.4040     1.9840     0.1440 cd         1 1BK       0.403800
     11 C11          0.0460     0.2180     0.3900 ca         1 1BK       0.029800
     12 C12          1.3970     0.5690     0.2820 ca         1 1BK      -0.266900
     13 C13          2.4040    -0.4070     0.3200 ca         1 1BK       0.213100
     14 C14          2.0190    -1.7260     0.4740 ca         1 1BK      -0.239000
     15 C15          0.6560    -2.0510     0.5830 ca         1 1BK      -0.047000
     16 C16         -0.3540    -1.1150     0.5440 ca         1 1BK      -0.133000
     17 C17         -6.3050    -0.3450     0.3530 c6         1 1BK       0.241500
     18 C18         -6.8840    -1.6040     0.9930 c6         1 1BK      -0.091400
     19 C19         -8.3890    -1.7010     0.7700 c6         1 1BK      -0.090400
     20 C20         -8.7310    -1.6470    -0.7110 c6         1 1BK       0.168300
     21 C21         -8.1770    -0.3700    -1.3310 c6         1 1BK      -0.090400
     22 C22         -6.6680    -0.2800    -1.1310 c6         1 1BK      -0.091400
     23 O23        -10.1350    -1.7430    -0.8400 oh         1 1BK      -0.658000
     24 O24          3.6620     0.0370     0.1990 os         1 1BK      -0.339100
     25 C25          4.7190    -0.9090     0.2060 c3         1 1BK       0.170600
     26 C26          6.0140    -0.1480     0.0030 c3         1 1BK      -0.056400
     27 C27          7.1820    -1.1250     0.0080 c3         1 1BK      -0.305400
     28 S28          8.7250    -0.2520    -0.2440 s6         1 1BK       1.085000
     29 C29          9.9530    -1.5350    -0.1910 c3         1 1BK      -0.337100
     30 O30          8.7130     0.3320    -1.5870 o          1 1BK      -0.512000
     31 O31          8.9370     0.6490     0.8900 o          1 1BK      -0.512000
     32 H1          -4.3790    -1.1960     0.5000 hn         1 1BK       0.494000
     33 H2          -4.3780     3.9900     0.1960 h4         1 1BK       0.023100
     34 H3          -1.8980     3.8120     0.1540 ha         1 1BK       0.160000
     35 H4           2.2490     2.6460     0.0340 h4         1 1BK       0.060800
     36 H5           2.7440    -2.5260     0.5130 ha         1 1BK       0.117000
     37 H6           0.3940    -3.0940     0.7040 ha         1 1BK       0.112000
     38 H7          -1.3890    -1.3970     0.6310 ha         1 1BK       0.147000
     39 H8          -6.7350     0.5260     0.8550 h1         1 1BK       0.084700
     40 H9          -6.3930    -2.4850     0.5610 hc         1 1BK       0.048950
     41 H10         -6.6620    -1.6120     2.0620 hc         1 1BK       0.048950
     42 H11         -8.7670    -2.6270     1.2100 hc         1 1BK       0.053950
     43 H12         -8.8910    -0.8730     1.2820 hc         1 1BK       0.053950
     44 H13         -8.2420    -2.5030    -1.2040 h1         1 1BK       0.025700
     45 H14         -8.4110    -0.3350    -2.4000 hc         1 1BK       0.053950
     46 H15         -8.6670     0.4940    -0.8680 hc         1 1BK       0.053950
     47 H16         -6.2850     0.6440    -1.5680 hc         1 1BK       0.048950
     48 H17         -6.1760    -1.1090    -1.6510 hc         1 1BK       0.048950
     49 H18        -10.3510    -1.7300    -1.7770 ho         1 1BK       0.442000
     50 H19          4.7380    -1.4500     1.1590 h1         1 1BK       0.038700
     51 H20          4.5780    -1.6440    -0.5930 h1         1 1BK       0.038700
     52 H21          5.9790     0.3870    -0.9480 hc         1 1BK       0.079200
     53 H22          6.1370     0.5860     0.8000 hc         1 1BK       0.079200
     54 H23          7.2640    -1.6540     0.9600 h1         1 1BK       0.094700
     55 H24          7.0970    -1.8630    -0.7920 h1         1 1BK       0.094700
     56 H25          9.7750    -2.2410    -0.9990 h1         1 1BK       0.104700
     57 H26         10.9230    -1.0580    -0.3200 h1         1 1BK       0.104700
     58 H27          9.9120    -2.0380     0.7720 h1         1 1BK       0.104700
@<TRIPOS>BOND
     1     1     2 1   
     2     1    17 1   
     3     1    32 1   
     4     2     3 ar  
     5     2     7 ar  
     6     3     4 ar  
     7     4     5 ar  
     8     4    33 1   
     9     5     6 ar  
    10     5    34 1   
    11     6     7 ar  
    12     6     8 1   
    13     8     9 1   
    14     8    11 1   
    15     9    10 2   
    16    10    12 1   
    17    10    35 1   
    18    11    12 ar  
    19    11    16 ar  
    20    12    13 ar  
    21    13    14 ar  
    22    13    24 1   
    23    14    15 ar  
    24    14    36 1   
    25    15    16 ar  
    26    15    37 1   
    27    16    38 1   
    28    17    18 1   
    29    17    22 1   
    30    17    39 1   
    31    18    19 1   
    32    18    40 1   
    33    18    41 1   
    34    19    20 1   
    35    19    42 1   
    36    19    43 1   
    37    20    21 1   
    38    20    23 1   
    39    20    44 1   
    40    21    22 1   
    41    21    45 1   
    42    21    46 1   
    43    22    47 1   
    44    22    48 1   
    45    23    49 1   
    46    24    25 1   
    47    25    26 1   
    48    25    50 1   
    49    25    51 1   
    50    26    27 1   
    51    26    52 1   
    52    26    53 1   
    53    27    28 1   
    54    27    54 1   
    55    27    55 1   
    56    28    29 1   
    57    28    30 2   
    58    28    31 2   
    59    29    56 1   
    60    29    57 1   
    61    29    58 1   
@<TRIPOS>SUBSTRUCTURE
     1 1BK         1 TEMP              0 ****  ****    0 ROOT
