@<TRIPOS>MOLECULE
1BK
   58    61     1     0     0
SMALL
No Charge or Current Charge


@<TRIPOS>ATOM
      1 N1          -5.0180    -0.5340     0.0900 nu         1 1BK      -0.914100
      2 C2          -4.1800     0.5410     0.3440 ca         1 1BK       0.407900
      3 N3          -4.7270     1.6950     0.7660 nb         1 1BK      -0.254000
      4 C4          -3.8720     2.7040     1.0000 ca         1 1BK       0.154900
      5 C5          -2.4910     2.5480     0.8130 ca         1 1BK      -0.275000
      6 C6          -2.0040     1.3000     0.3670 ca         1 1BK       0.294500
      7 N7          -2.8790     0.2950     0.1370 nb         1 1BK      -0.304000
      8 N8          -0.6210     1.1720     0.1950 na         1 1BK       0.050100
      9 N9           0.0840     2.0170    -0.6750 nc         1 1BK      -0.519100
     10 C10          1.3470     1.5570    -0.6070 cd         1 1BK       0.403800
     11 C11          0.1930     0.2150     0.7680 ca         1 1BK       0.029800
     12 C12          1.4450     0.4260     0.2890 ca         1 1BK      -0.266900
     13 C13          2.5330    -0.3610     0.6630 ca         1 1BK       0.213100
     14 C14          2.2910    -1.4120     1.5820 ca         1 1BK      -0.239000
     15 C15          0.9850    -1.6330     2.0890 ca         1 1BK      -0.047000
     16 C16         -0.0870    -0.8100     1.6820 ca         1 1BK      -0.133000
     17 C17         -6.4910    -0.5130     0.1040 c6         1 1BK       0.241500
     18 C18         -7.0180    -1.9630     0.2550 c6         1 1BK      -0.091400
     19 C19         -8.5670    -2.0060     0.2040 c6         1 1BK      -0.090400
     20 C20         -9.1070    -1.3660    -1.1000 c6         1 1BK       0.168300
     21 C21         -8.5770     0.0820    -1.2600 c6         1 1BK      -0.090400
     22 C22         -7.0280     0.1250    -1.2060 c6         1 1BK      -0.091400
     23 O23        -10.5360    -1.3650    -1.0820 oh         1 1BK      -0.658000
     24 O24          3.7730    -0.0850     0.1310 os         1 1BK      -0.339100
     25 C25          4.9340    -0.8580     0.4770 c3         1 1BK       0.170600
     26 C26          6.1310    -0.2720    -0.2960 c3         1 1BK      -0.056400
     27 C27          7.4580    -1.0250    -0.0090 c3         1 1BK      -0.305400
     28 S28          8.8730    -0.3490    -0.9100 s6         1 1BK       1.085000
     29 C29         10.2520    -1.3770    -0.4100 c3         1 1BK      -0.337100
     30 O30          8.6470    -0.5660    -2.3440 o          1 1BK      -0.512000
     31 O31          9.1220     1.0100    -0.4140 o          1 1BK      -0.512000
     32 H1          -4.5470    -1.3770    -0.2340 hn         1 1BK       0.494000
     33 H2          -4.2980     3.6460     1.3430 h4         1 1BK       0.023100
     34 H3          -1.8130     3.3730     1.0080 ha         1 1BK       0.160000
     35 H4           2.1180     2.0410    -1.1940 h4         1 1BK       0.060800
     36 H5           3.0950    -2.0620     1.9150 ha         1 1BK       0.117000
     37 H6           0.8070    -2.4400     2.7960 ha         1 1BK       0.112000
     38 H7          -1.0930    -0.9680     2.0650 ha         1 1BK       0.147000
     39 H8          -6.8600     0.0690     0.9640 h1         1 1BK       0.084700
     40 H9          -6.6100    -2.5980    -0.5440 hc         1 1BK       0.048950
     41 H10         -6.6690    -2.3900     1.2050 hc         1 1BK       0.048950
     42 H11         -8.9100    -3.0470     0.2780 hc         1 1BK       0.053950
     43 H12         -8.9790    -1.4800     1.0770 hc         1 1BK       0.053950
     44 H13         -8.7480    -1.9640    -1.9510 h1         1 1BK       0.025700
     45 H14         -8.9230     0.5050    -2.2130 hc         1 1BK       0.053950
     46 H15         -8.9890     0.7210    -0.4660 hc         1 1BK       0.053950
     47 H16         -6.6880     1.1660    -1.2860 hc         1 1BK       0.048950
     48 H17         -6.6160    -0.4050    -2.0760 hc         1 1BK       0.048950
     49 H18        -10.8280    -1.0360    -1.9610 ho         1 1BK       0.442000
     50 H19          5.1310    -0.8010     1.5550 h1         1 1BK       0.038700
     51 H20          4.7960    -1.9100     0.1980 h1         1 1BK       0.038700
     52 H21          5.9090    -0.3110    -1.3710 hc         1 1BK       0.079200
     53 H22          6.2400     0.7870    -0.0280 hc         1 1BK       0.079200
     54 H23          7.7140    -0.9660     1.0550 h1         1 1BK       0.094700
     55 H24          7.3780    -2.0770    -0.3050 h1         1 1BK       0.094700
     56 H25         10.0220    -2.4070    -0.7000 h1         1 1BK       0.104700
     57 H26         11.1430    -1.0090    -0.9300 h1         1 1BK       0.104700
     58 H27         10.3610    -1.2840     0.6750 h1         1 1BK       0.104700
@<TRIPOS>BOND
     1     1     2 1   
     2     1    17 1   
     3     1    32 1   
     4     2     3 ar  
     5     2     7 ar  
     6     3     4 ar  
     7     4     5 ar  
     8     4    33 1   
     9     5     6 ar  
    10     5    34 1   
    11     6     7 ar  
    12     6     8 1   
    13     8     9 1   
    14     8    11 1   
    15     9    10 2   
    16    10    12 1   
    17    10    35 1   
    18    11    12 ar  
    19    11    16 ar  
    20    12    13 ar  
    21    13    14 ar  
    22    13    24 1   
    23    14    15 ar  
    24    14    36 1   
    25    15    16 ar  
    26    15    37 1   
    27    16    38 1   
    28    17    18 1   
    29    17    22 1   
    30    17    39 1   
    31    18    19 1   
    32    18    40 1   
    33    18    41 1   
    34    19    20 1   
    35    19    42 1   
    36    19    43 1   
    37    20    21 1   
    38    20    23 1   
    39    20    44 1   
    40    21    22 1   
    41    21    45 1   
    42    21    46 1   
    43    22    47 1   
    44    22    48 1   
    45    23    49 1   
    46    24    25 1   
    47    25    26 1   
    48    25    50 1   
    49    25    51 1   
    50    26    27 1   
    51    26    52 1   
    52    26    53 1   
    53    27    28 1   
    54    27    54 1   
    55    27    55 1   
    56    28    29 1   
    57    28    30 2   
    58    28    31 2   
    59    29    56 1   
    60    29    57 1   
    61    29    58 1   
@<TRIPOS>SUBSTRUCTURE
     1 1BK         1 TEMP              0 ****  ****    0 ROOT
