@<TRIPOS>MOLECULE
1BL
   81    83     1     0     0
SMALL
No Charge or Current Charge


@<TRIPOS>ATOM
      1 C2           2.6890    -1.9340    -0.7550 ca         1 1BL      -0.165500
      2 C3           1.8000    -1.1330    -1.4980 ca         1 1BL      -0.028300
      3 C5           3.3280    -1.2480    -3.3940 ca         1 1BL       0.209000
      4 C4           2.1270    -0.7960    -2.8260 ca         1 1BL      -0.165500
      5 C10          0.6070     0.8720    -0.4270 c3         1 1BL       0.084700
      6 C11         -0.6740     1.4320     0.2650 c3         1 1BL       0.143300
      7 C12         -1.9430     1.3810    -0.6320 c3         1 1BL       0.138800
      8 C9           0.5110    -0.6170    -0.8690 c3         1 1BL      -0.054100
      9 C1           3.8880    -2.3810    -1.3320 ca         1 1BL       0.209000
     10 C6           4.2130    -2.0400    -2.6510 ca         1 1BL      -0.188000
     11 O24          3.1900     1.9810    -1.1130 o          1 1BL      -0.611100
     12 C18          4.0780     1.6190     1.1070 c3         1 1BL      -0.149400
     13 C19          5.1280     0.4980     0.8970 c3         1 1BL      -0.063400
     14 C20          6.3150     0.5470     1.8940 c3         1 1BL       0.016300
     15 O41          5.8270     0.3230     3.2440 oh         1 1BL      -0.721000
     16 C21          7.4360    -0.4860     1.4990 c          1 1BL       0.692000
     17 O23          7.5630    -1.4780     2.2070 o          1 1BL      -0.718500
     18 O22          8.2000    -0.2040     0.5870 o          1 1BL      -0.718500
     19 N16          1.7810     1.0760     0.4360 ns         1 1BL      -0.514900
     20 F8           3.6340    -0.9150    -4.6670 f          1 1BL      -0.169500
     21 F7           4.7380    -3.1410    -0.6080 f          1 1BL      -0.169500
     22 O40         -0.9190     0.7460     1.5170 oh         1 1BL      -0.664000
     23 N13         -3.1000     1.9820     0.0720 n7         1 1BL      -0.882400
     24 C14         -4.4650     1.7240    -0.4560 c6         1 1BL       0.251500
     25 C29         -4.6150     2.3370    -1.8950 c6         1 1BL      -0.061900
     26 C28         -4.4660     3.8810    -1.9210 c6         1 1BL      -0.066400
     27 C27         -5.4970     4.5500    -0.9840 c6         1 1BL      -0.069400
     28 C26         -5.3820     3.9910     0.4520 c6         1 1BL      -0.066400
     29 C25         -5.5030     2.4420     0.4710 c6         1 1BL      -0.061900
     30 C30         -4.7110     0.1850    -0.4030 ca         1 1BL      -0.103300
     31 C35         -4.5910    -0.4930     0.8340 ca         1 1BL      -0.115000
     32 C34         -4.7770    -1.8900     0.9540 ca         1 1BL      -0.063300
     33 C36         -4.6220    -2.5650     2.3440 c3         1 1BL       0.000300
     34 C39         -3.1840    -2.3200     2.8760 c3         1 1BL      -0.083100
     35 C38         -5.6490    -1.9490     3.3320 c3         1 1BL      -0.083100
     36 C37         -4.8600    -4.1020     2.3060 c3         1 1BL      -0.083100
     37 C33         -5.0950    -2.6170    -0.2180 ca         1 1BL      -0.109000
     38 C32         -5.2140    -1.9650    -1.4530 ca         1 1BL      -0.113000
     39 C31         -5.0210    -0.5800    -1.5510 ca         1 1BL      -0.105000
     40 H1           2.4590    -2.2020     0.2730 ha         1 1BL       0.129000
     41 H2           1.4560    -0.1750    -3.4150 ha         1 1BL       0.129000
     42 H3           0.7520     1.4670    -1.3400 h1         1 1BL       0.091700
     43 H4          -0.4800     2.4950     0.4690 h1         1 1BL       0.098700
     44 H5          -1.7440     1.9130    -1.5720 h1         1 1BL       0.038700
     45 H6          -2.1510     0.3330    -0.8840 h1         1 1BL       0.038700
     46 H7          -0.3070    -0.7340    -1.5890 hc         1 1BL       0.044200
     47 H8           0.2470    -1.2380    -0.0050 hc         1 1BL       0.044200
     48 H9           5.1410    -2.3870    -3.0940 ha         1 1BL       0.153000
     49 H10          4.5880     2.5870     1.0540 hc         1 1BL       0.055700
     50 H11          3.6210     1.4890     2.0950 hc         1 1BL       0.055700
     51 H12          4.6370    -0.4810     0.9660 hc         1 1BL       0.053200
     52 H13          5.5250     0.5760    -0.1230 hc         1 1BL       0.053200
     53 H14          6.7700     1.5450     1.8310 h1         1 1BL       0.026700
     54 H15          6.2280    -0.5410     3.5110 ho         1 1BL       0.476000
     55 H17          1.7070     0.7990     1.4080 hn         1 1BL       0.317500
     56 H18         -1.1620    -0.1770     1.2940 ho         1 1BL       0.433000
     57 H19         -3.0710     1.6160     1.0280 hn         1 1BL       0.429000
     58 H21         -3.8860     1.8910    -2.5850 hc         1 1BL       0.038450
     59 H22         -5.6070     2.0870    -2.2950 hc         1 1BL       0.038450
     60 H23         -3.4480     4.1690    -1.6240 hc         1 1BL       0.044950
     61 H24         -4.6040     4.2490    -2.9470 hc         1 1BL       0.044950
     62 H25         -5.3450     5.6380    -0.9760 hc         1 1BL       0.031700
     63 H26         -6.5120     4.3790    -1.3680 hc         1 1BL       0.031700
     64 H27         -4.4240     4.2980     0.8940 hc         1 1BL       0.044950
     65 H28         -6.1660     4.4310     1.0840 hc         1 1BL       0.044950
     66 H29         -6.5180     2.1580     0.1610 hc         1 1BL       0.038450
     67 H30         -5.4010     2.0960     1.5080 hc         1 1BL       0.038450
     68 H31         -4.3380     0.0800     1.7210 ha         1 1BL       0.108000
     69 H32         -2.9830    -1.2530     3.0240 hc         1 1BL       0.035478
     70 H33         -3.0310    -2.8200     3.8400 hc         1 1BL       0.035478
     71 H34         -2.4390    -2.7090     2.1700 hc         1 1BL       0.035478
     72 H35         -6.6720    -2.0770     2.9560 hc         1 1BL       0.035478
     73 H36         -5.5880    -2.4320     4.3150 hc         1 1BL       0.035478
     74 H37         -5.4770    -0.8770     3.4810 hc         1 1BL       0.035478
     75 H38         -4.1410    -4.5980     1.6430 hc         1 1BL       0.035478
     76 H39         -4.7440    -4.5400     3.3040 hc         1 1BL       0.035478
     77 H40         -5.8740    -4.3370     1.9600 hc         1 1BL       0.035478
     78 H41         -5.2510    -3.6910    -0.1980 ha         1 1BL       0.111000
     79 H42         -5.4540    -2.5390    -2.3450 ha         1 1BL       0.108000
     80 H43         -5.1150    -0.1240    -2.5320 ha         1 1BL       0.112000
     81 C17          2.9960     1.5750     0.0240 c          1 1BL       0.601100
@<TRIPOS>BOND
     1     1     2 ar  
     2     1     9 ar  
     3     1    40 1   
     4     2     4 ar  
     5     2     8 1   
     6     3     4 ar  
     7     3    10 ar  
     8     3    20 1   
     9     4    41 1   
    10     5     6 1   
    11     5     8 1   
    12     5    19 1   
    13     5    42 1   
    14     6     7 1   
    15     6    22 1   
    16     6    43 1   
    17     7    23 1   
    18     7    44 1   
    19     7    45 1   
    20     8    46 1   
    21     8    47 1   
    22     9    10 ar  
    23     9    21 1   
    24    10    48 1   
    25    11    81 2   
    26    12    13 1   
    27    12    49 1   
    28    12    50 1   
    29    12    81 1   
    30    13    14 1   
    31    13    51 1   
    32    13    52 1   
    33    14    15 1   
    34    14    16 1   
    35    14    53 1   
    36    15    54 1   
    37    16    17 1   
    38    16    18 1   
    39    19    55 1   
    40    19    81 1   
    41    22    56 1   
    42    23    24 1   
    43    23    57 1   
    44    24    25 1   
    45    24    29 1   
    46    24    30 1   
    47    25    26 1   
    48    25    58 1   
    49    25    59 1   
    50    26    27 1   
    51    26    60 1   
    52    26    61 1   
    53    27    28 1   
    54    27    62 1   
    55    27    63 1   
    56    28    29 1   
    57    28    64 1   
    58    28    65 1   
    59    29    66 1   
    60    29    67 1   
    61    30    31 ar  
    62    30    39 ar  
    63    31    32 ar  
    64    31    68 1   
    65    32    33 1   
    66    32    37 ar  
    67    33    34 1   
    68    33    35 1   
    69    33    36 1   
    70    34    69 1   
    71    34    70 1   
    72    34    71 1   
    73    35    72 1   
    74    35    73 1   
    75    35    74 1   
    76    36    75 1   
    77    36    76 1   
    78    36    77 1   
    79    37    38 ar  
    80    37    78 1   
    81    38    39 ar  
    82    38    79 1   
    83    39    80 1   
@<TRIPOS>SUBSTRUCTURE
     1 1BL         1 TEMP              0 ****  ****    0 ROOT
