@<TRIPOS>MOLECULE
1BL
   81    83     1     0     0
SMALL
abcg2


@<TRIPOS>ATOM
      1 C2           2.5960    -1.9580    -0.3110 ca         1 1BL      -0.165500
      2 C3           1.6130    -1.3820    -1.1090 ca         1 1BL      -0.028300
      3 C5           3.0030    -1.7220    -3.0210 ca         1 1BL       0.209000
      4 C4           1.8190    -1.2660    -2.4800 ca         1 1BL      -0.165500
      5 C10          0.4910     0.6790    -0.2130 c3         1 1BL       0.084700
      6 C11         -0.7580     1.2920     0.4320 c3         1 1BL       0.143300
      7 C12         -2.0030     1.1360    -0.4300 c3         1 1BL       0.138800
      8 C9           0.3590    -0.8310    -0.4960 c3         1 1BL      -0.054100
      9 C1           3.7640    -2.3960    -0.9030 ca         1 1BL       0.209000
     10 C6           4.0040    -2.2940    -2.2590 ca         1 1BL      -0.188000
     11 O24          2.9990     1.7700    -0.9830 o          1 1BL      -0.611100
     12 C18          3.9090     1.5020     1.2170 c3         1 1BL      -0.149400
     13 C19          5.2170     0.8930     0.7230 c3         1 1BL      -0.063400
     14 C20          6.3450     1.0290     1.7410 c3         1 1BL       0.016300
     15 O41          6.0050     0.4410     2.9720 oh         1 1BL      -0.721000
     16 C21          7.6440     0.3810     1.2110 c          1 1BL       0.692000
     17 O23          8.1040    -0.5330     1.9330 o          1 1BL      -0.718500
     18 O22          8.1100     0.8060     0.1430 o          1 1BL      -0.718500
     19 N16          1.6400     0.9390     0.6210 ns         1 1BL      -0.514900
     20 F8           3.1970    -1.6080    -4.3420 f          1 1BL      -0.169500
     21 F7           4.7150    -2.9400    -0.1290 f          1 1BL      -0.169500
     22 O40         -0.9600     0.8090     1.7490 oh         1 1BL      -0.664000
     23 N13         -3.0900     1.9050     0.1310 n7         1 1BL      -0.882400
     24 C14         -4.4080     1.7310    -0.4680 c6         1 1BL       0.251500
     25 C29         -4.3810     2.2930    -1.8980 c6         1 1BL      -0.061900
     26 C28         -3.9940     3.7660    -1.9290 c6         1 1BL      -0.066400
     27 C27         -4.9570     4.5990    -1.0900 c6         1 1BL      -0.069400
     28 C26         -5.0650     4.0660     0.3350 c6         1 1BL      -0.066400
     29 C25         -5.3950     2.5770     0.3580 c6         1 1BL      -0.061900
     30 C30         -4.8800     0.2700    -0.4340 ca         1 1BL      -0.103300
     31 C35         -4.5800    -0.5190     0.6750 ca         1 1BL      -0.115000
     32 C34         -4.9520    -1.8580     0.7840 ca         1 1BL      -0.063300
     33 C36         -4.5300    -2.6560     2.0140 c3         1 1BL       0.000300
     34 C39         -3.0020    -2.6020     2.1500 c3         1 1BL      -0.083100
     35 C38         -5.1700    -2.0480     3.2690 c3         1 1BL      -0.083100
     36 C37         -4.9490    -4.1240     1.9270 c3         1 1BL      -0.083100
     37 C33         -5.6860    -2.4110    -0.2620 ca         1 1BL      -0.109000
     38 C32         -6.0210    -1.6410    -1.3670 ca         1 1BL      -0.113000
     39 C31         -5.6200    -0.3170    -1.4590 ca         1 1BL      -0.105000
     40 H1           2.4560    -2.0630     0.7570 ha         1 1BL       0.129000
     41 H2           1.0650    -0.8190    -3.1170 ha         1 1BL       0.129000
     42 H3           0.6560     1.1920    -1.1620 h1         1 1BL       0.091700
     43 H4          -0.5640     2.3620     0.5500 h1         1 1BL       0.098700
     44 H5          -1.7690     1.5100    -1.4310 h1         1 1BL       0.038700
     45 H6          -2.2450     0.0680    -0.5490 h1         1 1BL       0.038700
     46 H7          -0.4780    -0.9990    -1.1750 hc         1 1BL       0.044200
     47 H8           0.1400    -1.3710     0.4300 hc         1 1BL       0.044200
     48 H9           4.9260    -2.6480    -2.7010 ha         1 1BL       0.153000
     49 H10          4.0630     2.5620     1.4480 hc         1 1BL       0.055700
     50 H11          3.5980     1.0220     2.1460 hc         1 1BL       0.055700
     51 H12          5.0640    -0.1650     0.4910 hc         1 1BL       0.053200
     52 H13          5.5210     1.3810    -0.2040 hc         1 1BL       0.053200
     53 H14          6.5410     2.1030     1.8870 h1         1 1BL       0.026700
     54 H15          6.6950    -0.2430     3.0640 ho         1 1BL       0.476000
     55 H17          1.5790     0.6510     1.5850 hn         1 1BL       0.317500
     56 H18         -1.1860    -0.1260     1.7110 ho         1 1BL       0.433000
     57 H19         -3.1380     1.7640     1.1320 hn         1 1BL       0.429000
     58 H21         -3.7150     1.7020    -2.5330 hc         1 1BL       0.038450
     59 H22         -5.3770     2.1950    -2.3360 hc         1 1BL       0.038450
     60 H23         -2.9740     3.8920    -1.5580 hc         1 1BL       0.044950
     61 H24         -3.9980     4.1180    -2.9630 hc         1 1BL       0.044950
     62 H25         -4.6420     5.6450    -1.0760 hc         1 1BL       0.031700
     63 H26         -5.9470     4.5820    -1.5590 hc         1 1BL       0.031700
     64 H27         -4.1250     4.2410     0.8620 hc         1 1BL       0.044950
     65 H28         -5.8360     4.6140     0.8820 hc         1 1BL       0.044950
     66 H29         -6.4020     2.4140    -0.0390 hc         1 1BL       0.038450
     67 H30         -5.4150     2.2120     1.3910 hc         1 1BL       0.038450
     68 H31         -4.0150    -0.0740     1.4870 ha         1 1BL       0.108000
     69 H32         -2.6510    -1.5850     2.3350 hc         1 1BL       0.035478
     70 H33         -2.6700    -3.2100     2.9940 hc         1 1BL       0.035478
     71 H34         -2.5060    -2.9710     1.2500 hc         1 1BL       0.035478
     72 H35         -6.2590    -2.1040     3.2210 hc         1 1BL       0.035478
     73 H36         -4.8440    -2.5900     4.1600 hc         1 1BL       0.035478
     74 H37         -4.8960    -1.0000     3.4040 hc         1 1BL       0.035478
     75 H38         -4.4990    -4.6300     1.0700 hc         1 1BL       0.035478
     76 H39         -4.6250    -4.6500     2.8260 hc         1 1BL       0.035478
     77 H40         -6.0320    -4.2380     1.8570 hc         1 1BL       0.035478
     78 H41         -6.0000    -3.4460    -0.2330 ha         1 1BL       0.111000
     79 H42         -6.5930    -2.0830    -2.1720 ha         1 1BL       0.108000
     80 H43         -5.8940     0.2440    -2.3420 ha         1 1BL       0.112000
     81 C17          2.8180     1.4160     0.1720 c          1 1BL       0.601100
@<TRIPOS>BOND
     1     1     2 ar  
     2     1     9 ar  
     3     1    40 1   
     4     2     4 ar  
     5     2     8 1   
     6     3     4 ar  
     7     3    10 ar  
     8     3    20 1   
     9     4    41 1   
    10     5     6 1   
    11     5     8 1   
    12     5    19 1   
    13     5    42 1   
    14     6     7 1   
    15     6    22 1   
    16     6    43 1   
    17     7    23 1   
    18     7    44 1   
    19     7    45 1   
    20     8    46 1   
    21     8    47 1   
    22     9    10 ar  
    23     9    21 1   
    24    10    48 1   
    25    11    81 2   
    26    12    13 1   
    27    12    49 1   
    28    12    50 1   
    29    12    81 1   
    30    13    14 1   
    31    13    51 1   
    32    13    52 1   
    33    14    15 1   
    34    14    16 1   
    35    14    53 1   
    36    15    54 1   
    37    16    17 1   
    38    16    18 1   
    39    19    55 1   
    40    19    81 1   
    41    22    56 1   
    42    23    24 1   
    43    23    57 1   
    44    24    25 1   
    45    24    29 1   
    46    24    30 1   
    47    25    26 1   
    48    25    58 1   
    49    25    59 1   
    50    26    27 1   
    51    26    60 1   
    52    26    61 1   
    53    27    28 1   
    54    27    62 1   
    55    27    63 1   
    56    28    29 1   
    57    28    64 1   
    58    28    65 1   
    59    29    66 1   
    60    29    67 1   
    61    30    31 ar  
    62    30    39 ar  
    63    31    32 ar  
    64    31    68 1   
    65    32    33 1   
    66    32    37 ar  
    67    33    34 1   
    68    33    35 1   
    69    33    36 1   
    70    34    69 1   
    71    34    70 1   
    72    34    71 1   
    73    35    72 1   
    74    35    73 1   
    75    35    74 1   
    76    36    75 1   
    77    36    76 1   
    78    36    77 1   
    79    37    38 ar  
    80    37    78 1   
    81    38    39 ar  
    82    38    79 1   
    83    39    80 1   
@<TRIPOS>SUBSTRUCTURE
     1 1BL         1 TEMP              0 ****  ****    0 ROOT
