@<TRIPOS>MOLECULE
1BM
   61    64     1     0     0
SMALL
No Charge or Current Charge


@<TRIPOS>ATOM
      1 O21          3.5410     3.5740    -2.3390 oh         1 1BM      -0.531100
      2 C17          2.4940     3.9080    -1.5350 ca         1 1BM       0.157100
      3 C13          2.4280     5.1830    -0.9620 ca         1 1BM      -0.219000
      4 C16          1.3380     5.5300    -0.1480 ca         1 1BM      -0.048000
      5 C15          0.3110     4.5970     0.1030 ca         1 1BM      -0.142300
      6 C19         -0.8630     5.0050     0.9950 c3         1 1BM      -0.041800
      7 C14          1.4800     2.9750    -1.2920 ca         1 1BM      -0.176000
      8 C11          0.3940     3.3030    -0.4630 ca         1 1BM       0.336000
      9 N3          -0.6270     2.3760    -0.2360 nu         1 1BM      -0.949900
     10 C2          -0.6800     0.9990    -0.1840 ca         1 1BM       0.435900
     11 N1          -1.9070     0.4790    -0.2570 nb         1 1BM      -0.320000
     12 C9           0.4460     0.2080    -0.0090 ca         1 1BM      -0.378000
     13 C8           0.2320    -1.1620     0.0510 ca         1 1BM       0.439900
     14 N10          1.2600    -2.0650     0.2190 nu         1 1BM      -0.931100
     15 C27          2.7080    -1.7710     0.3110 c3         1 1BM       0.225800
     16 C30          3.5650    -3.0610     0.4840 c3         1 1BM       0.160800
     17 N34          5.0540    -2.8850     0.4350 n3         1 1BM      -0.739600
     18 C36          5.5540    -1.9590     1.4930 c3         1 1BM       0.174800
     19 C42          7.0380    -1.5550     1.3670 c3         1 1BM      -0.090600
     20 C35          5.7870    -4.1850     0.4150 c3         1 1BM       0.174800
     21 C38          5.4690    -5.1030    -0.7840 c3         1 1BM      -0.090600
     22 N6          -0.9880    -1.6960    -0.0400 nb         1 1BM      -0.332000
     23 C5          -2.0450    -0.8660    -0.1890 ca         1 1BM       0.324500
     24 N7          -3.3110    -1.4300    -0.2710 na         1 1BM      -0.196100
     25 C49         -4.4580    -0.8960     0.2490 ca         1 1BM      -0.051200
     26 C54         -4.6850    -0.3530     1.5220 ca         1 1BM      -0.084000
     27 C53         -5.4440    -1.0080    -0.6910 ca         1 1BM       0.064400
     28 N51         -4.9690    -1.5630    -1.8690 nc         1 1BM      -0.575100
     29 C50         -3.6570    -1.7530    -1.5950 cd         1 1BM       0.456700
     30 C55         -6.7470    -0.5700    -0.4120 ca         1 1BM      -0.057000
     31 C56         -7.0150    -0.0120     0.8570 ca         1 1BM      -0.129000
     32 C58         -5.9870     0.0970     1.8220 ca         1 1BM      -0.109000
     33 HO21         4.1430     4.3460    -2.3980 ho         1 1BM       0.467000
     34 H13          3.2120     5.9150    -1.1470 ha         1 1BM       0.117000
     35 H16          1.2920     6.5270     0.2880 ha         1 1BM       0.115000
     36 H191        -1.8030     5.0120     0.4310 hc         1 1BM       0.043367
     37 H192        -0.9780     4.3140     1.8390 hc         1 1BM       0.043367
     38 H193        -0.7260     6.0090     1.4140 hc         1 1BM       0.043367
     39 H14          1.5310     2.0020    -1.7670 ha         1 1BM       0.142000
     40 HN3         -1.5250     2.8020    -0.0190 hn         1 1BM       0.514000
     41 H9           1.4340     0.6360     0.0980 ha         1 1BM       0.147000
     42 HN10         0.9670    -3.0430     0.2480 hn         1 1BM       0.505000
     43 H271         2.8840    -1.1000     1.1620 h1         1 1BM       0.055700
     44 H272         3.0380    -1.2520    -0.5990 h1         1 1BM       0.055700
     45 H301         3.2500    -3.7400    -0.3180 h1         1 1BM       0.038700
     46 H302         3.2820    -3.5380     1.4330 h1         1 1BM       0.038700
     47 H361         5.3940    -2.4000     2.4860 h1         1 1BM       0.030950
     48 H362         4.9850    -1.0220     1.4650 h1         1 1BM       0.030950
     49 H421         7.2570    -1.1960     0.3540 hc         1 1BM       0.038200
     50 H422         7.2660    -0.7470     2.0720 hc         1 1BM       0.038200
     51 H423         7.7050    -2.3930     1.5980 hc         1 1BM       0.038200
     52 H351         6.8680    -4.0010     0.3720 h1         1 1BM       0.030950
     53 H352         5.5950    -4.7400     1.3430 h1         1 1BM       0.030950
     54 H381         6.1740    -5.9420    -0.8090 hc         1 1BM       0.038200
     55 H382         4.4590    -5.5220    -0.7130 hc         1 1BM       0.038200
     56 H383         5.5590    -4.5520    -1.7280 hc         1 1BM       0.038200
     57 H54         -3.8840    -0.2860     2.2560 ha         1 1BM       0.136000
     58 H50         -2.9100    -2.0950    -2.3020 h5         1 1BM       0.080800
     59 H55         -7.5310    -0.6550    -1.1600 ha         1 1BM       0.127000
     60 H56         -8.0190     0.3350     1.0940 ha         1 1BM       0.112000
     61 H58         -6.2010     0.5250     2.7990 ha         1 1BM       0.109000
@<TRIPOS>BOND
     1     1     2 1   
     2     1    33 1   
     3     2     3 ar  
     4     2     7 ar  
     5     3     4 ar  
     6     3    34 1   
     7     4     5 ar  
     8     4    35 1   
     9     5     6 1   
    10     5     8 ar  
    11     6    36 1   
    12     6    37 1   
    13     6    38 1   
    14     7     8 ar  
    15     7    39 1   
    16     8     9 1   
    17     9    10 1   
    18     9    40 1   
    19    10    11 ar  
    20    10    12 ar  
    21    11    23 ar  
    22    12    13 ar  
    23    12    41 1   
    24    13    14 1   
    25    13    22 ar  
    26    14    15 1   
    27    14    42 1   
    28    15    16 1   
    29    15    43 1   
    30    15    44 1   
    31    16    17 1   
    32    16    45 1   
    33    16    46 1   
    34    17    18 1   
    35    17    20 1   
    36    18    19 1   
    37    18    47 1   
    38    18    48 1   
    39    19    49 1   
    40    19    50 1   
    41    19    51 1   
    42    20    21 1   
    43    20    52 1   
    44    20    53 1   
    45    21    54 1   
    46    21    55 1   
    47    21    56 1   
    48    22    23 ar  
    49    23    24 1   
    50    24    25 1   
    51    24    29 1   
    52    25    26 ar  
    53    25    27 ar  
    54    26    32 ar  
    55    26    57 1   
    56    27    28 1   
    57    27    30 ar  
    58    28    29 2   
    59    29    58 1   
    60    30    31 ar  
    61    30    59 1   
    62    31    32 ar  
    63    31    60 1   
    64    32    61 1   
@<TRIPOS>SUBSTRUCTURE
     1 1BM         1 TEMP              0 ****  ****    0 ROOT
