@<TRIPOS>MOLECULE
1BM
   61    64     1     0     0
SMALL
abcg2


@<TRIPOS>ATOM
      1 O21          3.5570     3.2370    -2.3180 oh         1 1BM      -0.531100
      2 C17          2.6590     3.6240    -1.3900 ca         1 1BM       0.157100
      3 C13          2.7940     4.7920    -0.6490 ca         1 1BM      -0.219000
      4 C16          1.8150     5.1260     0.2760 ca         1 1BM      -0.048000
      5 C15          0.7060     4.3230     0.5090 ca         1 1BM      -0.142300
      6 C19         -0.3260     4.7010     1.5310 c3         1 1BM      -0.041800
      7 C14          1.5460     2.8120    -1.1970 ca         1 1BM      -0.176000
      8 C11          0.5890     3.1470    -0.2460 ca         1 1BM       0.336000
      9 N3          -0.5440     2.3450    -0.0610 nu         1 1BM      -0.949900
     10 C2          -0.6210     0.9910    -0.0210 ca         1 1BM       0.435900
     11 N1          -1.8780     0.5150     0.0110 nb         1 1BM      -0.320000
     12 C9           0.4820     0.1460     0.0160 ca         1 1BM      -0.378000
     13 C8           0.2150    -1.2280     0.0680 ca         1 1BM       0.439900
     14 N10          1.1910    -2.1430     0.1170 nu         1 1BM      -0.931100
     15 C27          2.6000    -1.8330     0.0900 c3         1 1BM       0.225800
     16 C30          3.4290    -3.0910     0.3090 c3         1 1BM       0.160800
     17 N34          4.8360    -2.7590     0.3890 n3         1 1BM      -0.739600
     18 C36          5.2330    -2.3400     1.7270 c3         1 1BM       0.174800
     19 C42          6.3760    -1.3390     1.7080 c3         1 1BM      -0.090600
     20 C35          5.7000    -3.8050    -0.1360 c3         1 1BM       0.174800
     21 C38          5.6840    -3.8830    -1.6540 c3         1 1BM      -0.090600
     22 N6          -1.0440    -1.6980     0.0790 nb         1 1BM      -0.332000
     23 C5          -1.9940    -0.7920     0.0590 ca         1 1BM       0.324500
     24 N7          -3.3010    -1.2940     0.0890 na         1 1BM      -0.196100
     25 C49         -4.5060    -0.6070     0.0870 ca         1 1BM      -0.051200
     26 C54         -4.8520     0.7410     0.0670 ca         1 1BM      -0.084000
     27 C53         -5.4840    -1.6150     0.1180 ca         1 1BM       0.064400
     28 N51         -4.8900    -2.8610     0.1370 nc         1 1BM      -0.575100
     29 C50         -3.6190    -2.6300     0.1190 cd         1 1BM       0.456700
     30 C55         -6.8380    -1.2930     0.1280 ca         1 1BM      -0.057000
     31 C56         -7.1860     0.0450     0.1070 ca         1 1BM      -0.129000
     32 C58         -6.2040     1.0430     0.0780 ca         1 1BM      -0.109000
     33 HO21         4.2530     3.8970    -2.4060 ho         1 1BM       0.467000
     34 H13          3.6510     5.4410    -0.7880 ha         1 1BM       0.117000
     35 H16          1.9260     6.0400     0.8460 ha         1 1BM       0.115000
     36 H191        -1.3070     4.8830     1.0860 hc         1 1BM       0.043367
     37 H192        -0.4540     3.9210     2.2850 hc         1 1BM       0.043367
     38 H193        -0.0360     5.6160     2.0460 hc         1 1BM       0.043367
     39 H14          1.4280     1.9280    -1.8110 ha         1 1BM       0.142000
     40 HN3         -1.4250     2.8170     0.0810 hn         1 1BM       0.514000
     41 H9           1.4900     0.5260     0.0260 ha         1 1BM       0.147000
     42 HN10         0.9020    -3.1090     0.1240 hn         1 1BM       0.505000
     43 H271         2.8280    -1.0980     0.8680 h1         1 1BM       0.055700
     44 H272         2.8850    -1.3850    -0.8670 h1         1 1BM       0.055700
     45 H301         3.2600    -3.7660    -0.5330 h1         1 1BM       0.038700
     46 H302         3.0710    -3.6200     1.2060 h1         1 1BM       0.038700
     47 H361         5.4970    -3.2060     2.3550 h1         1 1BM       0.030950
     48 H362         4.3760    -1.8720     2.2160 h1         1 1BM       0.030950
     49 H421         6.0820    -0.4350     1.1730 hc         1 1BM       0.038200
     50 H422         6.6540    -1.0560     2.7240 hc         1 1BM       0.038200
     51 H423         7.2680    -1.7380     1.2250 hc         1 1BM       0.038200
     52 H351         6.7220    -3.5910     0.1830 h1         1 1BM       0.030950
     53 H352         5.4500    -4.7890     0.2930 h1         1 1BM       0.030950
     54 H381         6.3830    -4.6450    -2.0000 hc         1 1BM       0.038200
     55 H382         4.7010    -4.1440    -2.0480 hc         1 1BM       0.038200
     56 H383         5.9780    -2.9280    -2.0910 hc         1 1BM       0.038200
     57 H54         -4.1060     1.5180     0.0450 ha         1 1BM       0.136000
     58 H50         -2.8450    -3.3810     0.1250 h5         1 1BM       0.080800
     59 H55         -7.5880    -2.0720     0.1510 ha         1 1BM       0.127000
     60 H56         -8.2300     0.3270     0.1140 ha         1 1BM       0.112000
     61 H58         -6.5070     2.0820     0.0630 ha         1 1BM       0.109000
@<TRIPOS>BOND
     1     1     2 1   
     2     1    33 1   
     3     2     3 ar  
     4     2     7 ar  
     5     3     4 ar  
     6     3    34 1   
     7     4     5 ar  
     8     4    35 1   
     9     5     6 1   
    10     5     8 ar  
    11     6    36 1   
    12     6    37 1   
    13     6    38 1   
    14     7     8 ar  
    15     7    39 1   
    16     8     9 1   
    17     9    10 1   
    18     9    40 1   
    19    10    11 ar  
    20    10    12 ar  
    21    11    23 ar  
    22    12    13 ar  
    23    12    41 1   
    24    13    14 1   
    25    13    22 ar  
    26    14    15 1   
    27    14    42 1   
    28    15    16 1   
    29    15    43 1   
    30    15    44 1   
    31    16    17 1   
    32    16    45 1   
    33    16    46 1   
    34    17    18 1   
    35    17    20 1   
    36    18    19 1   
    37    18    47 1   
    38    18    48 1   
    39    19    49 1   
    40    19    50 1   
    41    19    51 1   
    42    20    21 1   
    43    20    52 1   
    44    20    53 1   
    45    21    54 1   
    46    21    55 1   
    47    21    56 1   
    48    22    23 ar  
    49    23    24 1   
    50    24    25 1   
    51    24    29 1   
    52    25    26 ar  
    53    25    27 ar  
    54    26    32 ar  
    55    26    57 1   
    56    27    28 1   
    57    27    30 ar  
    58    28    29 2   
    59    29    58 1   
    60    30    31 ar  
    61    30    59 1   
    62    31    32 ar  
    63    31    60 1   
    64    32    61 1   
@<TRIPOS>SUBSTRUCTURE
     1 1BM         1 TEMP              0 ****  ****    0 ROOT
