@<TRIPOS>MOLECULE
1BN
   22    23     1     0     0
SMALL
abcg2


@<TRIPOS>ATOM
      1 C1          -1.9370     0.9500     0.3600 cc         1 1BN      -0.227000
      2 C2          -3.0140     0.4140     1.0080 cd         1 1BN       0.225900
      3 N1          -1.5220    -0.0130    -0.5150 na         1 1BN      -0.167500
      4 C3          -2.3440    -1.0720    -0.3560 cc         1 1BN       0.383400
      5 N2          -3.2590    -0.8500     0.5520 nd         1 1BN      -0.672000
      6 C4          -0.3740     0.0660    -1.3990 c3         1 1BN       0.122900
      7 C5           0.9220     0.0840    -0.6330 ca         1 1BN      -0.119300
      8 C6           1.3500    -1.0530     0.0490 ca         1 1BN      -0.089500
      9 C7           1.6960     1.2370    -0.5780 ca         1 1BN      -0.089500
     10 C8           2.5320    -1.0360     0.7730 ca         1 1BN      -0.110000
     11 C9           2.8820     1.2570     0.1470 ca         1 1BN      -0.110000
     12 C10          3.3010     0.1210     0.8240 ca         1 1BN      -0.097000
     13 H1          -1.4480     1.9060     0.4420 h4         1 1BN       0.156000
     14 H2          -3.6220     0.8750     1.7710 h4         1 1BN       0.036100
     15 H3          -2.2300    -1.9760    -0.9360 h5         1 1BN       0.050100
     16 H41         -0.4190    -0.7960    -2.0650 h1         1 1BN       0.064200
     17 H42         -0.4650     0.9570    -2.0190 h1         1 1BN       0.064200
     18 H6           0.7560    -1.9600     0.0130 ha         1 1BN       0.113500
     19 H7           1.3720     2.1280    -1.1030 ha         1 1BN       0.113500
     20 H8           2.8550    -1.9260     1.2980 ha         1 1BN       0.116500
     21 H9           3.4760     2.1610     0.1850 ha         1 1BN       0.116500
     22 H10          4.2240     0.1340     1.3900 ha         1 1BN       0.116000
@<TRIPOS>BOND
     1     1     2 2   
     2     1     3 1   
     3     1    13 1   
     4     2     5 1   
     5     2    14 1   
     6     3     4 1   
     7     3     6 1   
     8     4     5 2   
     9     4    15 1   
    10     6     7 1   
    11     6    16 1   
    12     6    17 1   
    13     7     8 ar  
    14     7     9 ar  
    15     8    10 ar  
    16     8    18 1   
    17     9    11 ar  
    18     9    19 1   
    19    10    12 ar  
    20    10    20 1   
    21    11    12 ar  
    22    11    21 1   
    23    12    22 1   
@<TRIPOS>SUBSTRUCTURE
     1 1BN         1 TEMP              0 ****  ****    0 ROOT
