@<TRIPOS>MOLECULE
1BN
   22    23     1     0     0
SMALL
No Charge or Current Charge


@<TRIPOS>ATOM
      1 C1          -2.2550     1.2540    -0.3560 cc         1 1BN      -0.227000
      2 C2          -3.2230     1.0990     0.6020 cd         1 1BN       0.225900
      3 N1          -1.5700     0.0570    -0.3860 na         1 1BN      -0.167500
      4 C3          -2.1480    -0.7710     0.5520 cc         1 1BN       0.383400
      5 N2          -3.1550    -0.1600     1.1620 nd         1 1BN      -0.672000
      6 C4          -0.4310    -0.2830    -1.2520 c3         1 1BN       0.122900
      7 C5           0.9250    -0.1790    -0.5570 ca         1 1BN      -0.119300
      8 C6           1.8740    -1.2100    -0.7070 ca         1 1BN      -0.089500
      9 C7           1.2500     0.9470     0.2290 ca         1 1BN      -0.089500
     10 C8           3.1260    -1.1230    -0.0740 ca         1 1BN      -0.110000
     11 C9           2.5030     1.0330     0.8610 ca         1 1BN      -0.110000
     12 C10          3.4410    -0.0010     0.7110 ca         1 1BN      -0.097000
     13 H1          -2.0150     2.0980    -0.9910 h4         1 1BN       0.156000
     14 H2          -3.9650     1.8230     0.9170 h4         1 1BN       0.036100
     15 H3          -1.7960    -1.7800     0.7350 h5         1 1BN       0.050100
     16 H41         -0.5780    -1.3040    -1.6280 h1         1 1BN       0.064200
     17 H42         -0.4380     0.3880    -2.1200 h1         1 1BN       0.064200
     18 H6           1.6420    -2.0840    -1.3140 ha         1 1BN       0.113500
     19 H7           0.5350     1.7570     0.3500 ha         1 1BN       0.113500
     20 H8           3.8520    -1.9240    -0.1930 ha         1 1BN       0.116500
     21 H9           2.7460     1.9040     1.4670 ha         1 1BN       0.116500
     22 H10          4.4100     0.0660     1.2010 ha         1 1BN       0.116000
@<TRIPOS>BOND
     1     1     2 2   
     2     1     3 1   
     3     1    13 1   
     4     2     5 1   
     5     2    14 1   
     6     3     4 1   
     7     3     6 1   
     8     4     5 2   
     9     4    15 1   
    10     6     7 1   
    11     6    16 1   
    12     6    17 1   
    13     7     8 ar  
    14     7     9 ar  
    15     8    10 ar  
    16     8    18 1   
    17     9    11 ar  
    18     9    19 1   
    19    10    12 ar  
    20    10    20 1   
    21    11    12 ar  
    22    11    21 1   
    23    12    22 1   
@<TRIPOS>SUBSTRUCTURE
     1 1BN         1 TEMP              0 ****  ****    0 ROOT
