@<TRIPOS>MOLECULE
1BO
   15    14     1     0     0
SMALL
abcg2


@<TRIPOS>ATOM
      1 C1          -0.3180    -0.0080     2.5330 c3         1 1BO      -0.088100
      2 C2           0.5210    -0.0070     1.2620 c3         1 1BO      -0.075400
      3 C3          -0.3310     0.0120    -0.0010 c3         1 1BO      -0.083400
      4 C4           0.5130     0.0060    -1.2600 c3         1 1BO       0.163600
      5 OH          -0.3350     0.0340    -2.3890 oh         1 1BO      -0.663000
      6 H11          0.3070    -0.0130     3.4260 hc         1 1BO       0.033033
      7 H12         -0.9580     0.8750     2.5820 hc         1 1BO       0.033033
      8 H13         -0.9640    -0.8860     2.5760 hc         1 1BO       0.033033
      9 H21          1.1890     0.8610     1.2650 hc         1 1BO       0.035700
     10 H22          1.1690    -0.8880     1.2510 hc         1 1BO       0.035700
     11 H31         -0.9970    -0.8570    -0.0050 hc         1 1BO       0.052200
     12 H32         -0.9730     0.9000     0.0040 hc         1 1BO       0.052200
     13 H41          1.1870     0.8730    -1.2460 h1         1 1BO       0.014700
     14 H42          1.1510    -0.8880    -1.2610 h1         1 1BO       0.014700
     15 HO           0.2150     0.0270    -3.1780 ho         1 1BO       0.441000
@<TRIPOS>BOND
     1     1     2 1   
     2     1     6 1   
     3     1     7 1   
     4     1     8 1   
     5     2     3 1   
     6     2     9 1   
     7     2    10 1   
     8     3     4 1   
     9     3    11 1   
    10     3    12 1   
    11     4     5 1   
    12     4    13 1   
    13     4    14 1   
    14     5    15 1   
@<TRIPOS>SUBSTRUCTURE
     1 1BO         1 TEMP              0 ****  ****    0 ROOT
