@<TRIPOS>MOLECULE
1BO
   15    14     1     0     0
SMALL
No Charge or Current Charge


@<TRIPOS>ATOM
      1 C1          -0.3270    -0.0070     2.5710 c3         1 1BO      -0.088100
      2 C2           0.5200    -0.0090     1.2840 c3         1 1BO      -0.075400
      3 C3          -0.3330     0.0110    -0.0030 c3         1 1BO      -0.083400
      4 C4           0.5180     0.0090    -1.2890 c3         1 1BO       0.163600
      5 OH          -0.3380     0.0270    -2.4350 oh         1 1BO      -0.663000
      6 H11          0.3210    -0.0210     3.4560 hc         1 1BO       0.033033
      7 H12         -0.9560     0.8910     2.6210 hc         1 1BO       0.033033
      8 H13         -0.9780    -0.8890     2.6090 hc         1 1BO       0.033033
      9 H21          1.1840     0.8650     1.2930 hc         1 1BO       0.035700
     10 H22          1.1620    -0.8990     1.2820 hc         1 1BO       0.035700
     11 H31         -0.9960    -0.8630    -0.0100 hc         1 1BO       0.052200
     12 H32         -0.9740     0.9010     0.0020 hc         1 1BO       0.052200
     13 H41          1.1740     0.8890    -1.2910 h1         1 1BO       0.014700
     14 H42          1.1520    -0.8880    -1.3030 h1         1 1BO       0.014700
     15 HO           0.2450     0.0250    -3.2270 ho         1 1BO       0.441000
@<TRIPOS>BOND
     1     1     2 1   
     2     1     6 1   
     3     1     7 1   
     4     1     8 1   
     5     2     3 1   
     6     2     9 1   
     7     2    10 1   
     8     3     4 1   
     9     3    11 1   
    10     3    12 1   
    11     4     5 1   
    12     4    13 1   
    13     4    14 1   
    14     5    15 1   
@<TRIPOS>SUBSTRUCTURE
     1 1BO         1 TEMP              0 ****  ****    0 ROOT
