@<TRIPOS>MOLECULE
1BP
   12    11     1     0     0
SMALL
No Charge or Current Charge


@<TRIPOS>ATOM
      1 Br          -0.0650    -0.0160    -1.3360 br         1 1BP      -0.254000
      2 C1          -0.8180    -0.3780     0.4790 c3         1 1BP       0.045600
      3 C2          -0.0150     0.3120     1.6090 c3         1 1BP       0.171300
      4 C3          -0.6090     0.0280     3.0020 c3         1 1BP      -0.133100
      5 O2           1.3500    -0.1290     1.5930 oh         1 1BP      -0.638000
      6 H11         -0.8260    -1.4670     0.6110 h1         1 1BP       0.073200
      7 H12         -1.8510    -0.0100     0.4670 h1         1 1BP       0.073200
      8 H21         -0.0610     1.3980     1.4380 h1         1 1BP       0.086700
      9 H31         -0.0320     0.5420     3.7800 hc         1 1BP       0.045033
     10 H32         -1.6440     0.3850     3.0580 hc         1 1BP       0.045033
     11 H33         -0.6060    -1.0470     3.2220 hc         1 1BP       0.045033
     12 HO21         1.3460    -1.0920     1.7870 ho         1 1BP       0.440000
@<TRIPOS>BOND
     1     1     2 1   
     2     2     3 1   
     3     2     6 1   
     4     2     7 1   
     5     3     4 1   
     6     3     5 1   
     7     3     8 1   
     8     4     9 1   
     9     4    10 1   
    10     4    11 1   
    11     5    12 1   
@<TRIPOS>SUBSTRUCTURE
     1 1BP         1 TEMP              0 ****  ****    0 ROOT
