@<TRIPOS>MOLECULE
1BP
   12    11     1     0     0
SMALL
abcg2


@<TRIPOS>ATOM
      1 BR          -0.1030    -0.0250    -1.2690 br         1 1BP      -0.254000
      2 C1          -0.8200    -0.3770     0.5260 c3         1 1BP       0.045600
      3 C2           0.0110     0.2930     1.6070 c3         1 1BP       0.171300
      4 C3          -0.6320     0.0180     2.9630 c3         1 1BP      -0.133100
      5 O2           1.3600    -0.0990     1.5700 oh         1 1BP      -0.638000
      6 H11         -0.8390    -1.4620     0.6470 h1         1 1BP       0.073200
      7 H12         -1.8440    -0.0070     0.5320 h1         1 1BP       0.073200
      8 H21          0.0080     1.3720     1.4330 h1         1 1BP       0.086700
      9 H31         -0.0660     0.5080     3.7540 hc         1 1BP       0.045033
     10 H32         -1.6540     0.3960     3.0000 hc         1 1BP       0.045033
     11 H33         -0.6630    -1.0530     3.1770 hc         1 1BP       0.045033
     12 HO21         1.4130    -1.0390     1.7720 ho         1 1BP       0.440000
@<TRIPOS>BOND
     1     1     2 1   
     2     2     3 1   
     3     2     6 1   
     4     2     7 1   
     5     3     4 1   
     6     3     5 1   
     7     3     8 1   
     8     4     9 1   
     9     4    10 1   
    10     4    11 1   
    11     5    12 1   
@<TRIPOS>SUBSTRUCTURE
     1 1BP         1 TEMP              0 ****  ****    0 ROOT
