@<TRIPOS>MOLECULE
1BR
   55    58     1     0     0
SMALL
No Charge or Current Charge


@<TRIPOS>ATOM
      1 C1           4.9880     2.5450    -0.9160 c3         1 1BR       0.190100
      2 N2           4.3320     1.3800    -0.2890 nh         1 1BR      -0.750300
      3 C3           2.9210     1.2090    -0.2510 ca         1 1BR       0.269000
      4 C4           2.0730     2.3350    -0.3260 ca         1 1BR      -0.096000
      5 C5           0.6750     2.1940    -0.2950 ca         1 1BR      -0.142000
      6 C6           0.0950     0.9210    -0.1850 ca         1 1BR       0.297000
      7 N7          -1.2900     0.7510    -0.1390 nu         1 1BR      -0.945200
      8 C8          -2.3250     1.7900    -0.2040 c3         1 1BR       0.258100
      9 C9          -3.7020     1.1480    -0.1230 ca         1 1BR      -0.118300
     10 C10         -4.3210     0.9460     1.1220 ca         1 1BR      -0.092500
     11 C11         -5.5930     0.3530     1.1950 ca         1 1BR      -0.113000
     12 C12         -6.2810    -0.0570     0.0290 ca         1 1BR      -0.051300
     13 C13         -5.6430     0.1510    -1.2190 ca         1 1BR      -0.113000
     14 C14         -4.3710     0.7450    -1.2910 ca         1 1BR      -0.092500
     15 C15         -7.6850    -0.7090     0.1570 c3         1 1BR      -0.001700
     16 C16         -8.3040    -1.0990    -1.2150 c3         1 1BR      -0.083100
     17 C17         -7.5750    -1.9980     1.0150 c3         1 1BR      -0.083100
     18 C18         -8.6520     0.2890     0.8500 c3         1 1BR      -0.083100
     19 C19          0.9230    -0.2070    -0.1130 ca         1 1BR      -0.139000
     20 C20          2.3300    -0.0820    -0.1560 ca         1 1BR      -0.034000
     21 C21          3.2030    -1.2560    -0.0940 cc         1 1BR       0.021000
     22 C22          4.5050    -1.1360     0.2550 cd         1 1BR      -0.423500
     23 C23          5.0680    -2.4160     0.1860 cd         1 1BR       0.360900
     24 N24          4.1940    -3.3380    -0.1900 nc         1 1BR      -0.525800
     25 N25          3.0270    -2.6120    -0.3710 na         1 1BR       0.161800
     26 C26          1.8190    -3.2890    -0.8630 c3         1 1BR       0.062900
     27 S27          5.2840     0.3640     0.6920 sy         1 1BR       1.226600
     28 O28          6.6640     0.3600     0.1960 o          1 1BR      -0.539500
     29 O29          4.9620     0.6850     2.0860 o          1 1BR      -0.539500
     30 H1           5.9620     2.2710    -1.3430 h1         1 1BR       0.055033
     31 H2           4.3780     2.9360    -1.7410 h1         1 1BR       0.055033
     32 H3           5.1390     3.3470    -0.1810 h1         1 1BR       0.055033
     33 H4           2.4930     3.3340    -0.3930 ha         1 1BR       0.123000
     34 H5           0.0530     3.0820    -0.3490 ha         1 1BR       0.120000
     35 H6          -1.6260    -0.2090    -0.0530 hn         1 1BR       0.470000
     36 H7          -2.2020     2.5010     0.6250 h1         1 1BR       0.045200
     37 H8          -2.2380     2.3540    -1.1440 h1         1 1BR       0.045200
     38 H9          -3.8160     1.2480     2.0370 ha         1 1BR       0.116000
     39 H10         -6.0410     0.2130     2.1760 ha         1 1BR       0.115500
     40 H11         -6.1130    -0.1400    -2.1530 ha         1 1BR       0.115500
     41 H12         -3.9020     0.8910    -2.2620 ha         1 1BR       0.116000
     42 H13         -8.4310    -0.2180    -1.8570 hc         1 1BR       0.036144
     43 H14         -7.6740    -1.8270    -1.7400 hc         1 1BR       0.036144
     44 H15         -9.2930    -1.5540    -1.0830 hc         1 1BR       0.036144
     45 H16         -8.5470    -2.5010     1.0960 hc         1 1BR       0.036144
     46 H17         -6.8660    -2.7030     0.5630 hc         1 1BR       0.036144
     47 H18         -7.2310    -1.7810     2.0320 hc         1 1BR       0.036144
     48 H19         -8.7160     1.2240     0.2800 hc         1 1BR       0.036144
     49 H20         -9.6630    -0.1310     0.9250 hc         1 1BR       0.036144
     50 H21         -8.3220     0.5350     1.8660 hc         1 1BR       0.036144
     51 H22          0.4620    -1.1810    -0.0050 ha         1 1BR       0.115000
     52 H23          6.0900    -2.7080     0.3960 h4         1 1BR       0.056100
     53 H24          1.3440    -2.6750    -1.6380 h1         1 1BR       0.063033
     54 H25          2.0850    -4.2610    -1.2940 h1         1 1BR       0.063033
     55 H26          1.1210    -3.4430    -0.0320 h1         1 1BR       0.063033
@<TRIPOS>BOND
     1     1     2 1   
     2     1    30 1   
     3     1    31 1   
     4     1    32 1   
     5     2     3 1   
     6     2    27 1   
     7     3     4 ar  
     8     3    20 ar  
     9     4     5 ar  
    10     4    33 1   
    11     5     6 ar  
    12     5    34 1   
    13     6     7 1   
    14     6    19 ar  
    15     7     8 1   
    16     7    35 1   
    17     8     9 1   
    18     8    36 1   
    19     8    37 1   
    20     9    10 ar  
    21     9    14 ar  
    22    10    11 ar  
    23    10    38 1   
    24    11    12 ar  
    25    11    39 1   
    26    12    13 ar  
    27    12    15 1   
    28    13    14 ar  
    29    13    40 1   
    30    14    41 1   
    31    15    16 1   
    32    15    17 1   
    33    15    18 1   
    34    16    42 1   
    35    16    43 1   
    36    16    44 1   
    37    17    45 1   
    38    17    46 1   
    39    17    47 1   
    40    18    48 1   
    41    18    49 1   
    42    18    50 1   
    43    19    20 ar  
    44    19    51 1   
    45    20    21 1   
    46    21    22 2   
    47    21    25 1   
    48    22    23 1   
    49    22    27 1   
    50    23    24 2   
    51    23    52 1   
    52    24    25 1   
    53    25    26 1   
    54    26    53 1   
    55    26    54 1   
    56    26    55 1   
    57    27    28 2   
    58    27    29 2   
@<TRIPOS>SUBSTRUCTURE
     1 1BR         1 TEMP              0 ****  ****    0 ROOT
