@<TRIPOS>MOLECULE
1BR
   55    58     1     0     0
SMALL
abcg2


@<TRIPOS>ATOM
      1 C1           4.7680     2.6490    -0.7000 c3         1 1BR       0.190100
      2 N2           4.2480     1.3470    -0.3020 nh         1 1BR      -0.750300
      3 C3           2.8490     1.1430    -0.2580 ca         1 1BR       0.269000
      4 C4           1.9620     2.2050    -0.3600 ca         1 1BR      -0.096000
      5 C5           0.5910     2.0060    -0.3860 ca         1 1BR      -0.142000
      6 C6           0.0480     0.7230    -0.2670 ca         1 1BR       0.297000
      7 N7          -1.3040     0.4870    -0.2140 nu         1 1BR      -0.945200
      8 C8          -2.2630     1.5140    -0.5580 c3         1 1BR       0.258100
      9 C9          -3.6600     0.9930    -0.3710 ca         1 1BR      -0.118300
     10 C10         -4.1390     0.6890     0.9030 ca         1 1BR      -0.092500
     11 C11         -5.4170     0.1920     1.0780 ca         1 1BR      -0.113000
     12 C12         -6.2750    -0.0280    -0.0060 ca         1 1BR      -0.051300
     13 C13         -5.7880     0.2770    -1.2720 ca         1 1BR      -0.113000
     14 C14         -4.5010     0.7770    -1.4520 ca         1 1BR      -0.092500
     15 C15         -7.6730    -0.5850     0.2370 c3         1 1BR      -0.001700
     16 C16         -8.4570    -0.7770    -1.0620 c3         1 1BR      -0.083100
     17 C17         -7.5580    -1.9440     0.9410 c3         1 1BR      -0.083100
     18 C18         -8.4600     0.3850     1.1290 c3         1 1BR      -0.083100
     19 C19          0.9400    -0.3490    -0.1550 ca         1 1BR      -0.139000
     20 C20          2.3160    -0.1620    -0.1750 ca         1 1BR      -0.034000
     21 C21          3.2680    -1.2490    -0.0530 cc         1 1BR       0.021000
     22 C22          4.5770    -1.0830     0.3580 cd         1 1BR      -0.423500
     23 C23          5.1640    -2.3510     0.3210 cd         1 1BR       0.360900
     24 N24          4.2800    -3.2320    -0.0930 nc         1 1BR      -0.525800
     25 N25          3.1460    -2.5630    -0.3200 na         1 1BR       0.161800
     26 C26          2.0010    -3.2810    -0.8390 c3         1 1BR       0.062900
     27 S27          5.1640     0.4770     0.7940 sy         1 1BR       1.226600
     28 O28          6.5630     0.6120     0.4280 o          1 1BR      -0.539500
     29 O29          4.7850     0.7980     2.1600 o          1 1BR      -0.539500
     30 H1           5.8340     2.5730    -0.8890 h1         1 1BR       0.055033
     31 H2           4.2860     2.9370    -1.6310 h1         1 1BR       0.055033
     32 H3           4.5930     3.4260     0.0460 h1         1 1BR       0.055033
     33 H4           2.3280     3.2200    -0.4320 ha         1 1BR       0.123000
     34 H5          -0.0500     2.8720    -0.4820 ha         1 1BR       0.120000
     35 H6          -1.5800    -0.4450    -0.4810 hn         1 1BR       0.470000
     36 H7          -2.1090     2.3750     0.0990 h1         1 1BR       0.045200
     37 H8          -2.1340     1.8750    -1.5870 h1         1 1BR       0.045200
     38 H9          -3.5040     0.8460     1.7670 ha         1 1BR       0.116000
     39 H10         -5.7490    -0.0290     2.0860 ha         1 1BR       0.115500
     40 H11         -6.4040     0.1290    -2.1490 ha         1 1BR       0.115500
     41 H12         -4.1530     0.9980    -2.4550 ha         1 1BR       0.116000
     42 H13         -8.6030     0.1660    -1.5920 hc         1 1BR       0.036144
     43 H14         -7.9650    -1.4760    -1.7420 hc         1 1BR       0.036144
     44 H15         -9.4460    -1.1800    -0.8380 hc         1 1BR       0.036144
     45 H16         -8.5500    -2.3640     1.1210 hc         1 1BR       0.036144
     46 H17         -6.9970    -2.6560     0.3350 hc         1 1BR       0.036144
     47 H18         -7.0590    -1.8620     1.9080 hc         1 1BR       0.036144
     48 H19         -8.5900     1.3510     0.6390 hc         1 1BR       0.036144
     49 H20         -9.4520    -0.0180     1.3430 hc         1 1BR       0.036144
     50 H21         -7.9650     0.5590     2.0850 hc         1 1BR       0.036144
     51 H22          0.5320    -1.3420    -0.0250 ha         1 1BR       0.115000
     52 H23          6.1720    -2.6420     0.5690 h4         1 1BR       0.056100
     53 H24          1.5260    -2.7040    -1.6280 h1         1 1BR       0.063033
     54 H25          2.3560    -4.2190    -1.2520 h1         1 1BR       0.063033
     55 H26          1.2780    -3.4890    -0.0520 h1         1 1BR       0.063033
@<TRIPOS>BOND
     1     1     2 1   
     2     1    30 1   
     3     1    31 1   
     4     1    32 1   
     5     2     3 1   
     6     2    27 1   
     7     3     4 ar  
     8     3    20 ar  
     9     4     5 ar  
    10     4    33 1   
    11     5     6 ar  
    12     5    34 1   
    13     6     7 1   
    14     6    19 ar  
    15     7     8 1   
    16     7    35 1   
    17     8     9 1   
    18     8    36 1   
    19     8    37 1   
    20     9    10 ar  
    21     9    14 ar  
    22    10    11 ar  
    23    10    38 1   
    24    11    12 ar  
    25    11    39 1   
    26    12    13 ar  
    27    12    15 1   
    28    13    14 ar  
    29    13    40 1   
    30    14    41 1   
    31    15    16 1   
    32    15    17 1   
    33    15    18 1   
    34    16    42 1   
    35    16    43 1   
    36    16    44 1   
    37    17    45 1   
    38    17    46 1   
    39    17    47 1   
    40    18    48 1   
    41    18    49 1   
    42    18    50 1   
    43    19    20 ar  
    44    19    51 1   
    45    20    21 1   
    46    21    22 2   
    47    21    25 1   
    48    22    23 1   
    49    22    27 1   
    50    23    24 2   
    51    23    52 1   
    52    24    25 1   
    53    25    26 1   
    54    26    53 1   
    55    26    54 1   
    56    26    55 1   
    57    27    28 2   
    58    27    29 2   
@<TRIPOS>SUBSTRUCTURE
     1 1BR         1 TEMP              0 ****  ****    0 ROOT
