@<TRIPOS>MOLECULE
1BS
   57    61     1     0     0
SMALL
No Charge or Current Charge


@<TRIPOS>ATOM
      1 Cl1         -6.6670     0.3860     1.0710 cl         1 1BS      -0.197000
      2 C1          -4.9190     0.3250     0.8880 ca         1 1BS       0.138000
      3 C2          -4.1080     1.2240     1.5950 ca         1 1BS      -0.106000
      4 C3          -2.7090     1.1700     1.4540 ca         1 1BS      -0.036300
      5 C4          -2.1100     0.2310     0.5870 ca         1 1BS      -0.182900
      6 C5          -2.9390    -0.6830    -0.1080 ca         1 1BS      -0.067000
      7 C6          -4.3360    -0.6300     0.0420 ca         1 1BS      -0.114000
      8 C9          -1.8090     2.1260     2.2280 c6         1 1BS      -0.060100
      9 C10         -0.4160     1.4930     2.5030 c6         1 1BS       0.166200
     10 N11          0.1470     0.8670     1.2950 n2         1 1BS      -0.697900
     11 C12         -0.6110     0.2030     0.4860 ce         1 1BS       0.683800
     12 N13         -0.0360    -0.5350    -0.5320 nu         1 1BS      -0.855400
     13 C14          1.1460    -1.4370    -0.3590 c3         1 1BS       0.192200
     14 C15          0.9690    -2.6750    -1.2820 c3         1 1BS      -0.040100
     15 C27          0.5940     2.5760     2.9720 c3         1 1BS      -0.082600
     16 C28         -0.5010     0.3990     3.6090 c3         1 1BS      -0.082600
     17 C7           2.5100    -0.7240    -0.5210 cc         1 1BS       0.675200
     18 N8           2.6970     0.5370     0.0200 na         1 1BS      -0.882200
     19 C19          4.7890    -0.6560    -1.2950 c          1 1BS       0.730100
     20 N24          3.5490    -1.2630    -1.1380 nd         1 1BS      -0.722100
     21 O25          5.6820    -1.2410    -1.8850 o          1 1BS      -0.536100
     22 C26         -0.3910    -3.3600    -1.1430 ca         1 1BS      -0.079300
     23 C29         -1.2200    -3.5250    -2.2720 ca         1 1BS      -0.103000
     24 C30         -2.4820    -4.1310    -2.1440 ca         1 1BS      -0.106500
     25 C31         -2.9240    -4.5790    -0.8880 ca         1 1BS      -0.105000
     26 C32         -2.1000    -4.4260     0.2390 ca         1 1BS      -0.106500
     27 C33         -0.8380    -3.8210     0.1120 ca         1 1BS      -0.103000
     28 C8           4.9530     0.6730    -0.7310 ca         1 1BS      -0.287600
     29 C16          3.8780     1.2270    -0.0840 ca         1 1BS       0.346000
     30 C17          4.0050     2.4990     0.4680 ca         1 1BS      -0.227000
     31 C18          5.2300     3.1650     0.3380 ca         1 1BS       0.385900
     32 N20          6.2930     2.6240    -0.2990 nb         1 1BS      -0.692000
     33 C21          6.1480     1.3860    -0.8280 ca         1 1BS       0.424900
     34 H1          -4.5650     1.9550     2.2560 ha         1 1BS       0.133000
     35 H2          -2.5200    -1.4450    -0.7570 ha         1 1BS       0.126000
     36 H3          -4.9670    -1.3340    -0.4960 ha         1 1BS       0.133000
     37 H4          -1.6890     3.0450     1.6390 hc         1 1BS       0.066200
     38 H5          -2.2820     2.4250     3.1740 hc         1 1BS       0.066200
     39 H6          -0.7110    -0.8280    -1.2300 hn         1 1BS       0.491000
     40 H7           1.1400    -1.8100     0.6740 h1         1 1BS       0.077700
     41 H8           1.1330    -2.3620    -2.3210 hc         1 1BS       0.066200
     42 H9           1.7600    -3.4010    -1.0570 hc         1 1BS       0.066200
     43 H10          0.2510     3.0700     3.8890 hc         1 1BS       0.039700
     44 H11          1.5810     2.1440     3.1780 hc         1 1BS       0.039700
     45 H12          0.7280     3.3540     2.2100 hc         1 1BS       0.039700
     46 H13         -1.1840    -0.4110     3.3270 hc         1 1BS       0.039700
     47 H14          0.4800    -0.0520     3.8030 hc         1 1BS       0.039700
     48 H15         -0.8640     0.8180     4.5550 hc         1 1BS       0.039700
     49 H16          1.8870     0.9340     0.5010 hn         1 1BS       0.514000
     50 H17         -0.8920    -3.1790    -3.2500 ha         1 1BS       0.107500
     51 H18         -3.1180    -4.2520    -3.0180 ha         1 1BS       0.114500
     52 H19         -3.9010    -5.0460    -0.7890 ha         1 1BS       0.115000
     53 H20         -2.4400    -4.7750     1.2120 ha         1 1BS       0.114500
     54 H21         -0.2100    -3.7100     0.9930 ha         1 1BS       0.107500
     55 H22          3.1780     2.9720     0.9870 ha         1 1BS       0.128000
     56 H23          5.3680     4.1620     0.7560 h4         1 1BS       0.022100
     57 H24          7.0180     0.9700    -1.3370 h4         1 1BS       0.045100
@<TRIPOS>BOND
     1     1     2 1   
     2     2     3 ar  
     3     2     7 ar  
     4     3     4 ar  
     5     3    34 1   
     6     4     5 ar  
     7     4     8 1   
     8     5     6 ar  
     9     5    11 1   
    10     6     7 ar  
    11     6    35 1   
    12     7    36 1   
    13     8     9 1   
    14     8    37 1   
    15     8    38 1   
    16     9    10 1   
    17     9    15 1   
    18     9    16 1   
    19    10    11 2   
    20    11    12 1   
    21    12    13 1   
    22    12    39 1   
    23    13    14 1   
    24    13    17 1   
    25    13    40 1   
    26    14    22 1   
    27    14    41 1   
    28    14    42 1   
    29    15    43 1   
    30    15    44 1   
    31    15    45 1   
    32    16    46 1   
    33    16    47 1   
    34    16    48 1   
    35    17    18 1   
    36    17    20 2   
    37    18    29 1   
    38    18    49 1   
    39    19    20 1   
    40    19    21 2   
    41    19    28 1   
    42    22    23 ar  
    43    22    27 ar  
    44    23    24 ar  
    45    23    50 1   
    46    24    25 ar  
    47    24    51 1   
    48    25    26 ar  
    49    25    52 1   
    50    26    27 ar  
    51    26    53 1   
    52    27    54 1   
    53    28    29 ar  
    54    28    33 ar  
    55    29    30 ar  
    56    30    31 ar  
    57    30    55 1   
    58    31    32 ar  
    59    31    56 1   
    60    32    33 ar  
    61    33    57 1   
@<TRIPOS>SUBSTRUCTURE
     1 1BS         1 TEMP              0 ****  ****    0 ROOT
