@<TRIPOS>MOLECULE
1BS
   57    61     1     0     0
SMALL
bcc


@<TRIPOS>ATOM
      1 CL1         -6.3700     2.2800    -0.6900 cl         1 1BS      -0.105400
      2 C1          -4.7940     1.6260    -0.3980 ca         1 1BS       0.046400
      3 C2          -3.8720     2.3790     0.3150 ca         1 1BS      -0.124000
      4 C3          -2.6080     1.8620     0.5540 ca         1 1BS      -0.036300
      5 C4          -2.2780     0.5940     0.0720 ca         1 1BS      -0.182900
      6 C5          -3.2210    -0.1530    -0.6260 ca         1 1BS      -0.085000
      7 C6          -4.4850     0.3600    -0.8710 ca         1 1BS      -0.132000
      8 C9          -1.5540     2.6150     1.3050 c6         1 1BS      -0.060100
      9 C10         -0.6810     1.6630     2.1340 c6         1 1BS       0.166200
     10 N11         -0.1900     0.5620     1.3170 n2         1 1BS      -0.697900
     11 C12         -0.9280     0.0910     0.3930 ce         1 1BS       0.683800
     12 N13         -0.4860    -0.9880    -0.3310 nu         1 1BS      -0.800200
     13 C14          0.8250    -1.4960    -0.0550 c3         1 1BS       0.192200
     14 C15          1.1340    -2.6860    -0.9730 c3         1 1BS      -0.040100
     15 C27          0.5400     2.4180     2.6490 c3         1 1BS      -0.082600
     16 C28         -1.4670     1.0960     3.3210 c3         1 1BS      -0.082600
     17 C7           1.8950    -0.4350    -0.2220 cc         1 1BS       0.675200
     18 N8           2.8480    -0.3960     0.7270 na         1 1BS      -0.688600
     19 C19          2.8580     1.2620    -1.4690 c          1 1BS       0.730100
     20 N24          1.8820     0.3130    -1.2760 nd         1 1BS      -0.722100
     21 O25          2.8420     1.9860    -2.4510 o          1 1BS      -0.536100
     22 C26          0.1800    -3.8230    -0.7390 ca         1 1BS      -0.079300
     23 C29         -0.8780    -4.0630    -1.6110 ca         1 1BS      -0.121000
     24 C30         -1.7780    -5.0940    -1.3710 ca         1 1BS      -0.124500
     25 C31         -1.6290    -5.9000    -0.2500 ca         1 1BS      -0.123000
     26 C32         -0.5740    -5.6710     0.6250 ca         1 1BS      -0.124500
     27 C33          0.3230    -4.6410     0.3800 ca         1 1BS      -0.121000
     28 C8           3.9100     1.3550    -0.4470 ca         1 1BS      -0.352900
     29 C16          3.8760     0.4990     0.6510 ca         1 1BS       0.207600
     30 C17          4.8720     0.5890     1.6220 ca         1 1BS      -0.310300
     31 C18          5.8560     1.5330     1.4350 ca         1 1BS       0.451200
     32 N20          5.9140     2.3630     0.3870 nb         1 1BS      -0.692000
     33 C21          4.9630     2.2680    -0.5210 ca         1 1BS       0.490200
     34 H1          -4.1360     3.3600     0.6880 ha         1 1BS       0.151000
     35 H2          -2.9910    -1.1530    -0.9710 ha         1 1BS       0.144000
     36 H3          -5.2170    -0.2210    -1.4150 ha         1 1BS       0.151000
     37 H4          -0.9170     3.1410     0.5840 hc         1 1BS       0.066200
     38 H5          -2.0040     3.3780     1.9410 hc         1 1BS       0.066200
     39 H6          -0.7710    -1.0160    -1.2980 hn         1 1BS       0.435800
     40 H7           0.8450    -1.8410     0.9840 h1         1 1BS       0.077700
     41 H8           1.0940    -2.3560    -2.0140 hc         1 1BS       0.066200
     42 H9           2.1600    -3.0120    -0.7840 hc         1 1BS       0.066200
     43 H10          0.2490     3.2400     3.3060 hc         1 1BS       0.039700
     44 H11          1.1950     1.7470     3.2070 hc         1 1BS       0.039700
     45 H12          1.1170     2.8340     1.8210 hc         1 1BS       0.039700
     46 H13         -2.3550     0.5490     2.9980 hc         1 1BS       0.039700
     47 H14         -0.8410     0.4110     3.8940 hc         1 1BS       0.039700
     48 H15         -1.7890     1.8960     3.9890 hc         1 1BS       0.039700
     49 H16          2.7700    -0.9940     1.5370 hn         1 1BS       0.458800
     50 H17         -0.9960    -3.4410    -2.4910 ha         1 1BS       0.125500
     51 H18         -2.5930    -5.2670    -2.0610 ha         1 1BS       0.132500
     52 H19         -2.3300    -6.7030    -0.0610 ha         1 1BS       0.133000
     53 H20         -0.4490    -6.2980     1.4980 ha         1 1BS       0.132500
     54 H21          1.1450    -4.4750     1.0670 ha         1 1BS       0.125500
     55 H22          4.8770    -0.0580     2.4890 ha         1 1BS       0.146000
     56 H23          6.6460     1.6330     2.1700 h4         1 1BS       0.022100
     57 H24          5.0200     2.9440    -1.3670 h4         1 1BS       0.045100
@<TRIPOS>BOND
     1     1     2 1   
     2     2     3 ar  
     3     2     7 ar  
     4     3     4 ar  
     5     3    34 1   
     6     4     5 ar  
     7     4     8 1   
     8     5     6 ar  
     9     5    11 1   
    10     6     7 ar  
    11     6    35 1   
    12     7    36 1   
    13     8     9 1   
    14     8    37 1   
    15     8    38 1   
    16     9    10 1   
    17     9    15 1   
    18     9    16 1   
    19    10    11 2   
    20    11    12 1   
    21    12    13 1   
    22    12    39 1   
    23    13    14 1   
    24    13    17 1   
    25    13    40 1   
    26    14    22 1   
    27    14    41 1   
    28    14    42 1   
    29    15    43 1   
    30    15    44 1   
    31    15    45 1   
    32    16    46 1   
    33    16    47 1   
    34    16    48 1   
    35    17    18 1   
    36    17    20 2   
    37    18    29 1   
    38    18    49 1   
    39    19    20 1   
    40    19    21 2   
    41    19    28 1   
    42    22    23 ar  
    43    22    27 ar  
    44    23    24 ar  
    45    23    50 1   
    46    24    25 ar  
    47    24    51 1   
    48    25    26 ar  
    49    25    52 1   
    50    26    27 ar  
    51    26    53 1   
    52    27    54 1   
    53    28    29 ar  
    54    28    33 ar  
    55    29    30 ar  
    56    30    31 ar  
    57    30    55 1   
    58    31    32 ar  
    59    31    56 1   
    60    32    33 ar  
    61    33    57 1   
@<TRIPOS>SUBSTRUCTURE
     1 1BS         1 TEMP              0 ****  ****    0 ROOT
