@<TRIPOS>MOLECULE
1BT
   50    54     1     0     0
SMALL
abcg2


@<TRIPOS>ATOM
      1 N01        -10.2130    -1.5180    -0.1580 n1         1 1BT      -0.458000
      2 C02         -9.0910    -1.3040    -0.3250 cg         1 1BT       0.275700
      3 C03         -7.7180    -1.0310    -0.5500 ce         1 1BT      -0.122700
      4 C04         -6.7790    -1.4470     0.3140 cf         1 1BT      -0.089200
      5 C05         -5.3460    -1.2310     0.1940 ca         1 1BT      -0.076800
      6 C06         -4.5200    -1.6730     1.2280 ca         1 1BT      -0.084000
      7 C07         -3.1470    -1.4800     1.1920 ca         1 1BT      -0.075300
      8 C08         -2.2810    -1.9370     2.3290 c3         1 1BT      -0.047800
      9 C09         -4.7580    -0.6150    -0.9110 ca         1 1BT      -0.084000
     10 C10         -3.3890    -0.4190    -0.9940 ca         1 1BT      -0.075300
     11 C11         -2.7950     0.1830    -2.2290 c3         1 1BT      -0.047800
     12 C12         -2.5880    -0.8370     0.0820 ca         1 1BT       0.308000
     13 N13         -1.1950    -0.6710     0.0340 nu         1 1BT      -0.945900
     14 C14         -0.5530     0.5330     0.0730 ca         1 1BT       0.434900
     15 N15         -1.2880     1.6330     0.1130 nb         1 1BT      -0.262000
     16 C16         -0.5390     2.7330     0.1260 ca         1 1BT       0.159500
     17 N17         -0.9360     4.0320     0.1540 na         1 1BT      -0.415300
     18 C18          0.1960     4.7950     0.1650 cc         1 1BT       0.396700
     19 N19          1.2880     4.0880     0.1460 nd         1 1BT      -0.545100
     20 C20          0.8460     2.7890     0.1210 ca         1 1BT      -0.134600
     21 C21          1.5100     1.5500     0.0980 ca         1 1BT       0.482900
     22 N22          2.8640     1.5300     0.1000 nu         1 1BT      -0.920900
     23 C23          3.7720     0.4750     0.0510 ca         1 1BT       0.311000
     24 C24          5.1050     0.8170    -0.1500 ca         1 1BT      -0.119000
     25 C25          6.0710    -0.1820    -0.1920 ca         1 1BT       0.115400
     26 N26          7.4180     0.0270    -0.3860 nc         1 1BT      -0.527100
     27 C27          8.0530    -1.0900    -0.3810 cd         1 1BT       0.391100
     28 S28          7.1070    -2.5250    -0.1420 ss         1 1BT       0.024800
     29 C29          5.6980    -1.5260    -0.0360 ca         1 1BT      -0.208000
     30 C30          4.3690    -1.8730     0.1680 ca         1 1BT      -0.049000
     31 C31          3.4130    -0.8770     0.2140 ca         1 1BT      -0.119000
     32 N32          0.7890     0.4420     0.0700 nb         1 1BT      -0.335000
     33 H1          -7.4900    -0.4710    -1.4480 ha         1 1BT       0.202000
     34 H2          -7.0980    -1.9930     1.1960 ha         1 1BT       0.182000
     35 H3          -4.9630    -2.1600     2.0890 ha         1 1BT       0.115500
     36 H4          -1.5580    -2.6930     2.0170 hc         1 1BT       0.047533
     37 H5          -1.7150    -1.1080     2.7560 hc         1 1BT       0.047533
     38 H6          -2.8840    -2.3750     3.1220 hc         1 1BT       0.047533
     39 H7          -5.3690    -0.2980    -1.7480 ha         1 1BT       0.115500
     40 H8          -2.5360     1.2310    -2.0760 hc         1 1BT       0.047533
     41 H9          -1.8810    -0.3340    -2.5240 hc         1 1BT       0.047533
     42 H10         -3.4980     0.1290    -3.0590 hc         1 1BT       0.047533
     43 H11         -0.6210    -1.4670     0.2660 hn         1 1BT       0.511000
     44 H12         -1.8850     4.3750     0.1670 hn         1 1BT       0.371000
     45 H13          0.1470     5.8730     0.1870 h5         1 1BT       0.068800
     46 H15          3.2840     2.4480     0.0790 hn         1 1BT       0.522000
     47 H16          5.4010     1.8520    -0.2790 ha         1 1BT       0.135000
     48 H17          9.1230    -1.1700    -0.5150 h5         1 1BT       0.058800
     49 H18          4.0740    -2.9050     0.2950 ha         1 1BT       0.125000
     50 H19          2.3820    -1.1420     0.3750 ha         1 1BT       0.150000
@<TRIPOS>BOND
     1     1     2 3   
     2     2     3 1   
     3     3     4 2   
     4     3    33 1   
     5     4     5 1   
     6     4    34 1   
     7     5     6 ar  
     8     5     9 ar  
     9     6     7 ar  
    10     6    35 1   
    11     7     8 1   
    12     7    12 ar  
    13     8    36 1   
    14     8    37 1   
    15     8    38 1   
    16     9    10 ar  
    17     9    39 1   
    18    10    11 1   
    19    10    12 ar  
    20    11    40 1   
    21    11    41 1   
    22    11    42 1   
    23    12    13 1   
    24    13    14 1   
    25    13    43 1   
    26    14    15 ar  
    27    14    32 ar  
    28    15    16 ar  
    29    16    17 1   
    30    16    20 ar  
    31    17    18 1   
    32    17    44 1   
    33    18    19 2   
    34    18    45 1   
    35    19    20 1   
    36    20    21 ar  
    37    21    22 1   
    38    21    32 ar  
    39    22    23 1   
    40    22    46 1   
    41    23    24 ar  
    42    23    31 ar  
    43    24    25 ar  
    44    24    47 1   
    45    25    26 1   
    46    25    29 ar  
    47    26    27 2   
    48    27    28 1   
    49    27    48 1   
    50    28    29 1   
    51    29    30 ar  
    52    30    31 ar  
    53    30    49 1   
    54    31    50 1   
@<TRIPOS>SUBSTRUCTURE
     1 1BT         1 TEMP              0 ****  ****    0 ROOT
