@<TRIPOS>MOLECULE
1BT
   50    54     1     0     0
SMALL
No Charge or Current Charge


@<TRIPOS>ATOM
      1 N01        -10.3430    -1.9780    -0.3340 n1         1 1BT      -0.458000
      2 C02         -9.2350    -1.6600    -0.5100 cg         1 1BT       0.275700
      3 C03         -7.8650    -1.2970    -0.6790 ce         1 1BT      -0.122700
      4 C04         -6.8710    -1.6440     0.1890 cf         1 1BT      -0.089200
      5 C05         -5.4250    -1.3380     0.1360 ca         1 1BT      -0.076800
      6 C06         -4.5850    -1.8060     1.1620 ca         1 1BT      -0.084000
      7 C07         -3.2030    -1.5340     1.1510 ca         1 1BT      -0.075300
      8 C08         -2.3390    -2.0580     2.2990 c3         1 1BT      -0.047800
      9 C09         -4.8610    -0.5970    -0.9190 ca         1 1BT      -0.084000
     10 C10         -3.4810    -0.3150    -0.9560 ca         1 1BT      -0.075300
     11 C11         -2.9400     0.4450    -2.1690 c3         1 1BT      -0.047800
     12 C12         -2.6440    -0.7690     0.0980 ca         1 1BT       0.308000
     13 N13         -1.2640    -0.5060     0.1080 nu         1 1BT      -0.945900
     14 C14         -0.5370     0.6680     0.1160 ca         1 1BT       0.434900
     15 N15         -1.2140     1.8360     0.1580 nb         1 1BT      -0.262000
     16 C16         -0.4500     2.9380     0.1680 ca         1 1BT       0.159500
     17 N17         -0.7550     4.2620     0.1910 na         1 1BT      -0.415300
     18 C18          0.4330     4.9900     0.1810 cc         1 1BT       0.396700
     19 N19          1.4960     4.1640     0.1540 nd         1 1BT      -0.545100
     20 C20          0.9170     2.8880     0.1490 ca         1 1BT      -0.134600
     21 C21          1.5360     1.6220     0.1260 ca         1 1BT       0.482900
     22 N22          2.9230     1.5320     0.0820 nu         1 1BT      -0.920900
     23 C23          3.8550     0.4870     0.1140 ca         1 1BT       0.311000
     24 C24          5.1300     0.7120    -0.4410 ca         1 1BT      -0.119000
     25 C25          6.0980    -0.3030    -0.4210 ca         1 1BT       0.115400
     26 N26          7.3740    -0.1580    -0.9550 nc         1 1BT      -0.527100
     27 C27          8.0110    -1.3250    -0.7520 cd         1 1BT       0.391100
     28 S28          7.1370    -2.6410     0.0750 ss         1 1BT       0.024800
     29 C29          5.7920    -1.5210     0.1550 ca         1 1BT      -0.208000
     30 C30          4.5410    -1.7800     0.7310 ca         1 1BT      -0.049000
     31 C31          3.5700    -0.7620     0.7100 ca         1 1BT      -0.119000
     32 N32          0.7970     0.4990     0.1010 nb         1 1BT      -0.335000
     33 H1          -7.6470    -0.7070    -1.5670 ha         1 1BT       0.202000
     34 H2          -7.1660    -2.2360     1.0590 ha         1 1BT       0.182000
     35 H3          -5.0090    -2.3860     1.9790 ha         1 1BT       0.115500
     36 H4          -1.6050    -2.7880     1.9390 hc         1 1BT       0.047533
     37 H5          -1.7940    -1.2420     2.7890 hc         1 1BT       0.047533
     38 H6          -2.9400    -2.5540     3.0700 hc         1 1BT       0.047533
     39 H7          -5.4890    -0.2390    -1.7300 ha         1 1BT       0.115500
     40 H8          -2.9590     1.5270    -1.9960 hc         1 1BT       0.047533
     41 H9          -1.9120     0.1570    -2.4130 hc         1 1BT       0.047533
     42 H10         -3.5430     0.2470    -3.0630 hc         1 1BT       0.047533
     43 H11         -0.6950    -1.3020     0.3880 hn         1 1BT       0.511000
     44 H12         -1.6840     4.6580     0.2110 hn         1 1BT       0.371000
     45 H13          0.4560     6.0740     0.1930 h5         1 1BT       0.068800
     46 H15          3.3290     2.4560    -0.0660 hn         1 1BT       0.522000
     47 H16          5.3690     1.6690    -0.8940 ha         1 1BT       0.135000
     48 H17          9.0310    -1.5110    -1.0640 h5         1 1BT       0.058800
     49 H18          4.3260    -2.7430     1.1890 ha         1 1BT       0.125000
     50 H19          2.6090    -0.9470     1.1760 ha         1 1BT       0.150000
@<TRIPOS>BOND
     1     1     2 3   
     2     2     3 1   
     3     3     4 2   
     4     3    33 1   
     5     4     5 1   
     6     4    34 1   
     7     5     6 ar  
     8     5     9 ar  
     9     6     7 ar  
    10     6    35 1   
    11     7     8 1   
    12     7    12 ar  
    13     8    36 1   
    14     8    37 1   
    15     8    38 1   
    16     9    10 ar  
    17     9    39 1   
    18    10    11 1   
    19    10    12 ar  
    20    11    40 1   
    21    11    41 1   
    22    11    42 1   
    23    12    13 1   
    24    13    14 1   
    25    13    43 1   
    26    14    15 ar  
    27    14    32 ar  
    28    15    16 ar  
    29    16    17 1   
    30    16    20 ar  
    31    17    18 1   
    32    17    44 1   
    33    18    19 2   
    34    18    45 1   
    35    19    20 1   
    36    20    21 ar  
    37    21    22 1   
    38    21    32 ar  
    39    22    23 1   
    40    22    46 1   
    41    23    24 ar  
    42    23    31 ar  
    43    24    25 ar  
    44    24    47 1   
    45    25    26 1   
    46    25    29 ar  
    47    26    27 2   
    48    27    28 1   
    49    27    48 1   
    50    28    29 1   
    51    29    30 ar  
    52    30    31 ar  
    53    30    49 1   
    54    31    50 1   
@<TRIPOS>SUBSTRUCTURE
     1 1BT         1 TEMP              0 ****  ****    0 ROOT
