@<TRIPOS>MOLECULE
1BU
   68    72     1     0     0
SMALL
bcc


@<TRIPOS>ATOM
      1 C4          -8.3130     1.6280     0.4110 ca         1 1BU       0.401600
      2 C5          -7.3500     0.7420    -0.1100 ca         1 1BU      -0.252600
      3 C6          -5.9860     1.0440     0.2540 ca         1 1BU       0.725200
      4 N1          -5.7020     2.0890     0.9970 nb         1 1BU      -0.800000
      5 N3          -7.9840     2.6960     1.1860 nb         1 1BU      -0.717000
      6 CBA          6.9310     2.7280     0.4360 ca         1 1BU      -0.064300
      7 CAQ          6.5570     1.3950     0.5570 ca         1 1BU      -0.114000
      8 CAI          6.1940     3.5530    -0.4150 ca         1 1BU      -0.130000
      9 CAG          5.1180     3.0530    -1.1300 ca         1 1BU      -0.118000
     10 CAJ          4.7550     1.7170    -1.0190 ca         1 1BU      -0.148000
     11 CBE          5.4770     0.8950    -0.1640 ca         1 1BU       0.015800
     12 NBK          5.1390    -0.4690    -0.0300 na         1 1BU       0.131300
     13 NAV          6.1050    -1.4030    -0.0700 nc         1 1BU      -0.507800
     14 CBF          5.4970    -2.5570     0.0910 cd         1 1BU       0.342600
     15 CBL          6.2470    -3.8640     0.0870 c3         1 1BU      -0.072300
     16 CAC          7.7450    -3.6340    -0.1020 c3         1 1BU      -0.080100
     17 CAD          6.0090    -4.5800     1.4220 c3         1 1BU      -0.080100
     18 CAB          5.7170    -4.7380    -1.0560 c3         1 1BU      -0.080100
     19 CAR          4.1060    -2.3800     0.2650 cd         1 1BU      -0.303300
     20 CBG          3.9180    -1.0220     0.1930 cc         1 1BU       0.071300
     21 NAX          2.8040    -0.2230     0.3610 ns         1 1BU      -0.491100
     22 CAZ          1.5280    -0.6290     0.0490 c          1 1BU       0.808100
     23 OAF          1.2880    -1.7150    -0.4430 o          1 1BU      -0.594100
     24 CBC         -0.7940     0.2410     0.1970 ca         1 1BU       0.059600
     25 CAL         -1.5390     1.3100     0.6930 ca         1 1BU      -0.142500
     26 CAN         -2.9200     1.3540     0.5980 ca         1 1BU      -0.137000
     27 CAK         -1.4840    -0.8060    -0.4160 ca         1 1BU      -0.142500
     28 CAM         -2.8630    -0.7630    -0.5080 ca         1 1BU      -0.137000
     29 CBD         -3.6110     0.3040    -0.0080 ca         1 1BU       0.143600
     30 NAY         -4.9950     0.2310    -0.1790 nu         1 1BU      -0.734300
     31 CAS         -7.7450    -0.3320    -0.9260 ca         1 1BU      -0.190000
     32 CBB         -9.0810    -0.5500    -1.2170 ca         1 1BU       0.152600
     33 NAE         -9.4950    -1.6230    -1.9660 nv         1 1BU      -0.828200
     34 CAO        -10.0430     0.3410    -0.6800 ca         1 1BU      -0.155000
     35 CAP         -9.6700     1.3950     0.1030 ca         1 1BU      -0.139300
     36 C2          -6.7170     2.8600     1.4210 ca         1 1BU       0.678900
     37 HAA          7.7400     3.9560     2.0010 hc         1 1BU       0.046367
     38 HAAA         8.6570     2.4850     1.7030 hc         1 1BU       0.046367
     39 HAAB         8.7650     3.8420     0.5820 hc         1 1BU       0.046367
     40 HAQ          7.1060     0.7350     1.2160 ha         1 1BU       0.154000
     41 HAI          6.4710     4.5950    -0.5220 ha         1 1BU       0.134000
     42 HAG          4.5650     3.7000    -1.7970 ha         1 1BU       0.136000
     43 HAJ          3.9360     1.3240    -1.6070 ha         1 1BU       0.148000
     44 HAC          8.1600    -3.0040     0.6860 hc         1 1BU       0.036700
     45 HACA         8.2720    -4.5900    -0.0760 hc         1 1BU       0.036700
     46 HACB         7.9630    -3.1590    -1.0590 hc         1 1BU       0.036700
     47 HAD          4.9490    -4.7720     1.5950 hc         1 1BU       0.036700
     48 HADA         6.5260    -5.5420     1.4290 hc         1 1BU       0.036700
     49 HADB         6.3860    -3.9920     2.2600 hc         1 1BU       0.036700
     50 HAB          5.8810    -4.2630    -2.0250 hc         1 1BU       0.036700
     51 HABA         6.2290    -5.7020    -1.0650 hc         1 1BU       0.036700
     52 HABB         4.6480    -4.9310    -0.9530 hc         1 1BU       0.036700
     53 HAR          3.3580    -3.1340     0.4360 ha         1 1BU       0.182000
     54 HNAX         2.9480     0.6790     0.7910 hn         1 1BU       0.326500
     55 HNAW         0.9190     1.1710     0.7700 hn         1 1BU       0.314500
     56 HAL         -1.0330     2.1400     1.1710 ha         1 1BU       0.147500
     57 HAN         -3.4480     2.2000     1.0020 ha         1 1BU       0.150500
     58 HAK         -0.9640    -1.6560    -0.8250 ha         1 1BU       0.147500
     59 HAM         -3.3690    -1.5930    -0.9880 ha         1 1BU       0.150500
     60 HNAY        -5.2900    -0.5870    -0.6850 hn         1 1BU       0.442800
     61 HAS         -7.0190    -1.0120    -1.3570 ha         1 1BU       0.123000
     62 HNAE        -8.8030    -2.0480    -2.5620 hn         1 1BU       0.399300
     63 HNAA       -10.3870    -1.5300    -2.4240 hn         1 1BU       0.399300
     64 HAO        -11.0910     0.1800    -0.9020 ha         1 1BU       0.136000
     65 HAP        -10.4130     2.0750     0.5000 ha         1 1BU       0.153000
     66 H2          -6.4300     3.7100     2.0310 h5         1 1BU       0.045100
     67 NAW          0.5930     0.3150     0.3490 ns         1 1BU      -0.482100
     68 CAA          8.0860     3.2770     1.2200 c3         1 1BU      -0.049800
@<TRIPOS>BOND
     1     1     2 ar  
     2     1     5 ar  
     3     1    35 ar  
     4     2     3 ar  
     5     2    31 ar  
     6     3     4 ar  
     7     3    30 1   
     8     4    36 ar  
     9     5    36 ar  
    10     6     7 ar  
    11     6     8 ar  
    12     6    68 1   
    13     7    11 ar  
    14     7    40 1   
    15     8     9 ar  
    16     8    41 1   
    17     9    10 ar  
    18     9    42 1   
    19    10    11 ar  
    20    10    43 1   
    21    11    12 1   
    22    12    13 1   
    23    12    20 1   
    24    13    14 2   
    25    14    15 1   
    26    14    19 1   
    27    15    16 1   
    28    15    17 1   
    29    15    18 1   
    30    16    44 1   
    31    16    45 1   
    32    16    46 1   
    33    17    47 1   
    34    17    48 1   
    35    17    49 1   
    36    18    50 1   
    37    18    51 1   
    38    18    52 1   
    39    19    20 2   
    40    19    53 1   
    41    20    21 1   
    42    21    22 1   
    43    21    54 1   
    44    22    23 2   
    45    22    67 1   
    46    24    25 ar  
    47    24    27 ar  
    48    24    67 1   
    49    25    26 ar  
    50    25    56 1   
    51    26    29 ar  
    52    26    57 1   
    53    27    28 ar  
    54    27    58 1   
    55    28    29 ar  
    56    28    59 1   
    57    29    30 1   
    58    30    60 1   
    59    31    32 ar  
    60    31    61 1   
    61    32    33 1   
    62    32    34 ar  
    63    33    62 1   
    64    33    63 1   
    65    34    35 ar  
    66    34    64 1   
    67    35    65 1   
    68    36    66 1   
    69    37    68 1   
    70    38    68 1   
    71    39    68 1   
    72    55    67 1   
@<TRIPOS>SUBSTRUCTURE
     1 1BU         1 TEMP              0 ****  ****    0 ROOT
