@<TRIPOS>MOLECULE
1BU
   68    72     1     0     0
SMALL
No Charge or Current Charge


@<TRIPOS>ATOM
      1 C4          -8.3510     1.7790     0.5860 ca         1 1BU       0.008000
      2 C5          -7.4220     0.8580     0.0390 ca         1 1BU      -0.122000
      3 C6          -6.0590     1.0080     0.4050 ca         1 1BU       0.396900
      4 N1          -5.6660     1.9780     1.2500 nb         1 1BU      -0.274000
      5 N3          -7.9370     2.7530     1.4240 nb         1 1BU      -0.191000
      6 CBA          6.6630     2.8840     0.7000 ca         1 1BU      -0.064300
      7 CAQ          6.3930     1.5060     0.7930 ca         1 1BU      -0.096000
      8 CAI          6.1420     3.6210    -0.3800 ca         1 1BU      -0.112000
      9 CAG          5.3640     2.9850    -1.3620 ca         1 1BU      -0.100000
     10 CAJ          5.0990     1.6080    -1.2670 ca         1 1BU      -0.130000
     11 CBE          5.6090     0.8610    -0.1860 ca         1 1BU       0.015800
     12 NBK          5.3400    -0.5060    -0.0810 na         1 1BU       0.182000
     13 NAV          6.3740    -1.4120    -0.0520 nc         1 1BU      -0.507800
     14 CBF          5.7190    -2.5640     0.0040 cd         1 1BU       0.277300
     15 CBL          6.4410    -3.9110     0.0620 c3         1 1BU      -0.072300
     16 CAC          7.9900    -3.7550     0.0470 c3         1 1BU      -0.080100
     17 CAD          6.0330    -4.6490     1.3640 c3         1 1BU      -0.080100
     18 CAB          6.0210    -4.7630    -1.1650 c3         1 1BU      -0.080100
     19 CAR          4.3100    -2.3840     0.0030 cd         1 1BU      -0.220000
     20 CBG          4.0590    -1.0440    -0.0560 cc         1 1BU       0.020600
     21 NAX          2.8380    -0.3710    -0.0620 ns         1 1BU      -0.424100
     22 CAZ          1.5580    -0.8910    -0.0450 c          1 1BU       0.674100
     23 OAF          1.3200    -2.0900    -0.0230 o          1 1BU      -0.594100
     24 CBC         -0.8300     0.0650    -0.0500 ca         1 1BU      -0.033000
     25 CAL         -1.5180     1.2920    -0.0200 ca         1 1BU      -0.124500
     26 CAN         -2.9240     1.3280    -0.0150 ca         1 1BU      -0.119000
     27 CAK         -1.5780    -1.1320    -0.0840 ca         1 1BU      -0.124500
     28 CAM         -2.9850    -1.0900    -0.0800 ca         1 1BU      -0.119000
     29 CBD         -3.6700     0.1350    -0.0320 ca         1 1BU       0.282000
     30 NAY         -5.0710     0.1260    -0.0450 nu         1 1BU      -0.927900
     31 CAS         -7.8750    -0.1560    -0.8420 ca         1 1BU      -0.172000
     32 CBB         -9.2350    -0.2540    -1.1700 ca         1 1BU       0.291000
     33 NAE         -9.6630    -1.2360    -2.0230 nv         1 1BU      -1.077000
     34 CAO        -10.1520     0.6550    -0.6250 ca         1 1BU      -0.137000
     35 CAP         -9.7120     1.6660     0.2460 ca         1 1BU      -0.056000
     36 C2          -6.6220     2.8040     1.7130 ca         1 1BU       0.152900
     37 HAA          6.8770     3.9180     2.5940 hc         1 1BU       0.046367
     38 HAAA         8.2620     2.8950     2.1750 hc         1 1BU       0.046367
     39 HAAB         8.0310     4.4450     1.3570 hc         1 1BU       0.046367
     40 HAQ          6.7880     0.9320     1.6280 ha         1 1BU       0.136000
     41 HAI          6.3410     4.6880    -0.4610 ha         1 1BU       0.116000
     42 HAG          4.9690     3.5590    -2.1980 ha         1 1BU       0.118000
     43 HAJ          4.5040     1.1210    -2.0360 ha         1 1BU       0.130000
     44 HAC          8.3360    -3.1710     0.9090 hc         1 1BU       0.036700
     45 HACA         8.4840    -4.7340     0.0890 hc         1 1BU       0.036700
     46 HACB         8.3280    -3.2510    -0.8670 hc         1 1BU       0.036700
     47 HAD          4.9510    -4.8300     1.3950 hc         1 1BU       0.036700
     48 HADA         6.5370    -5.6200     1.4420 hc         1 1BU       0.036700
     49 HADB         6.3010    -4.0550     2.2460 hc         1 1BU       0.036700
     50 HAB          6.2800    -4.2520    -2.1000 hc         1 1BU       0.036700
     51 HABA         6.5250    -5.7380    -1.1600 hc         1 1BU       0.036700
     52 HABB         4.9390    -4.9460    -1.1690 hc         1 1BU       0.036700
     53 HAR          3.5770    -3.1800     0.0450 ha         1 1BU       0.164000
     54 HNAX         2.8720     0.6410    -0.0800 hn         1 1BU       0.326500
     55 HNAW         0.9670     1.0470    -0.0650 hn         1 1BU       0.148000
     56 HAL         -0.9620     2.2280    -0.0060 ha         1 1BU       0.129500
     57 HAN         -3.4250     2.2910    -0.0160 ha         1 1BU       0.132500
     58 HAK         -1.0950    -2.1030    -0.1180 ha         1 1BU       0.129500
     59 HAM         -3.5440    -2.0220    -0.1070 ha         1 1BU       0.132500
     60 HNAY        -5.4660    -0.7420    -0.3980 hn         1 1BU       0.498000
     61 HAS         -7.1810    -0.8660    -1.2800 ha         1 1BU       0.105000
     62 HNAE        -8.9830    -1.8000    -2.5280 hn         1 1BU       0.454500
     63 HNAA       -10.6190    -1.2240    -2.3760 hn         1 1BU       0.454500
     64 HAO        -11.2070     0.5830    -0.8750 ha         1 1BU       0.118000
     65 HAP        -10.4340     2.3670     0.6620 ha         1 1BU       0.135000
     66 H2          -6.3020     3.5910     2.3930 h5         1 1BU       0.045100
     67 NAW          0.5930     0.1070    -0.0530 ns         1 1BU      -0.156000
     68 CAA          7.5040     3.5730     1.7640 c3         1 1BU      -0.049800
@<TRIPOS>BOND
     1     1     2 ar  
     2     1     5 ar  
     3     1    35 ar  
     4     2     3 ar  
     5     2    31 ar  
     6     3     4 ar  
     7     3    30 1   
     8     4    36 ar  
     9     5    36 ar  
    10     6     7 ar  
    11     6     8 ar  
    12     6    68 1   
    13     7    11 ar  
    14     7    40 1   
    15     8     9 ar  
    16     8    41 1   
    17     9    10 ar  
    18     9    42 1   
    19    10    11 ar  
    20    10    43 1   
    21    11    12 1   
    22    12    13 1   
    23    12    20 1   
    24    13    14 2   
    25    14    15 1   
    26    14    19 1   
    27    15    16 1   
    28    15    17 1   
    29    15    18 1   
    30    16    44 1   
    31    16    45 1   
    32    16    46 1   
    33    17    47 1   
    34    17    48 1   
    35    17    49 1   
    36    18    50 1   
    37    18    51 1   
    38    18    52 1   
    39    19    20 2   
    40    19    53 1   
    41    20    21 1   
    42    21    22 1   
    43    21    54 1   
    44    22    23 2   
    45    22    67 1   
    46    24    25 ar  
    47    24    27 ar  
    48    24    67 1   
    49    25    26 ar  
    50    25    56 1   
    51    26    29 ar  
    52    26    57 1   
    53    27    28 ar  
    54    27    58 1   
    55    28    29 ar  
    56    28    59 1   
    57    29    30 1   
    58    30    60 1   
    59    31    32 ar  
    60    31    61 1   
    61    32    33 1   
    62    32    34 ar  
    63    33    62 1   
    64    33    63 1   
    65    34    35 ar  
    66    34    64 1   
    67    35    65 1   
    68    36    66 1   
    69    37    68 1   
    70    38    68 1   
    71    39    68 1   
    72    55    67 1   
@<TRIPOS>SUBSTRUCTURE
     1 1BU         1 TEMP              0 ****  ****    0 ROOT
