@<TRIPOS>MOLECULE
1BV
  109   115     1     0     0
SMALL
No Charge or Current Charge


@<TRIPOS>ATOM
      1 C1          -9.9570    -3.1650     0.1270 cx         1 1BV      -0.068400
      2 C2          -9.2350    -1.8440     0.2760 cx         1 1BV      -0.068400
      3 C3          -8.6030    -2.9660    -0.5310 cx         1 1BV      -0.401000
      4 S4          -7.1240    -3.8840     0.1730 s6         1 1BV       1.257800
      5 O5          -7.1820    -3.7940     1.6370 o          1 1BV      -0.526000
      6 O6          -7.0500    -5.1940    -0.4810 o          1 1BV      -0.526000
      7 N7          -5.8230    -2.9970    -0.3600 ns         1 1BV      -0.573300
      8 C8          -5.4780    -1.7360    -0.0060 c          1 1BV       0.683100
      9 O9          -6.0650    -1.0940     0.8510 o          1 1BV      -0.558100
     10 C10         -4.2640    -1.1970    -0.7720 cx         1 1BV      -0.077600
     11 C11         -4.3350    -1.2090    -2.2920 cx         1 1BV      -0.103400
     12 C12         -4.3980     0.1030    -1.5520 cx         1 1BV      -0.066700
     13 C13         -5.6690     0.9570    -1.5270 c3         1 1BV      -0.042400
     14 C14         -5.6120     2.1820    -2.4750 c3         1 1BV      -0.038200
     15 N15         -2.9540    -1.4170    -0.1820 ns         1 1BV      -0.475900
     16 C16         -2.3900    -0.5720     0.7590 c          1 1BV       0.583100
     17 O17         -3.0070     0.3410     1.2930 o          1 1BV      -0.558100
     18 C18         -0.8910    -0.9300     0.9890 c5         1 1BV       0.030700
     19 C19         -0.6900    -1.4240     2.4590 c5         1 1BV      -0.084400
     20 C20          0.7800    -1.0210     2.7490 c5         1 1BV       0.158300
     21 C21          0.8150     0.4260     2.1620 c5         1 1BV       0.072000
     22 N22         -0.0280     0.2800     0.9540 n          1 1BV      -0.389800
     23 C23          0.2090     0.9850    -0.2430 c          1 1BV       0.600100
     24 O24         -0.0930     0.4800    -1.3200 o          1 1BV      -0.617100
     25 C25          0.7180     2.4570    -0.1460 c3         1 1BV       0.086900
     26 C26         -0.3400     3.4260    -0.6520 c2         1 1BV      -0.230200
     27 C27         -1.5900     3.5010    -0.1650 c2         1 1BV      -0.186200
     28 C28         -2.7210     4.3160    -0.7580 c3         1 1BV      -0.006000
     29 C29         -3.9200     3.4210    -0.9970 c2         1 1BV      -0.226200
     30 C30         -4.4800     3.1650    -2.1930 c2         1 1BV      -0.215200
     31 N31          1.9530     2.6150    -0.9350 ns         1 1BV      -0.499900
     32 C32          3.2270     2.6420    -0.4070 c          1 1BV       0.540600
     33 O33          3.4260     2.5490     0.7990 o          1 1BV      -0.602100
     34 C34          4.3040     2.7980    -1.4420 cc         1 1BV       0.184500
     35 N35          4.1160     2.9040    -2.7530 nd         1 1BV      -0.525800
     36 N36          5.4110     3.0190    -3.2420 na         1 1BV       0.157800
     37 C37          6.3780     2.9940    -2.2320 cd         1 1BV      -0.175000
     38 C38          5.6620     2.8530    -1.0840 cc         1 1BV      -0.165000
     39 C39          5.6630     3.1590    -4.6820 c3         1 1BV       0.067900
     40 C40         -8.5170    -2.8430    -2.0570 c3         1 1BV      -0.042100
     41 O41          1.6150    -1.9100     1.9450 os         1 1BV      -0.343100
     42 C42          2.9410    -1.5260     1.9990 ca         1 1BV       0.221100
     43 C43          3.6260    -1.4600     3.2140 ca         1 1BV      -0.290000
     44 C44          4.9640    -1.0830     3.2130 ca         1 1BV       0.655300
     45 N45          5.6380    -0.8080     2.0810 nb         1 1BV      -0.799000
     46 C46          5.0010    -0.8690     0.8890 ca         1 1BV       0.379000
     47 C47          3.6360    -1.2340     0.8130 ca         1 1BV      -0.159000
     48 C48          2.9850    -1.2960    -0.4330 ca         1 1BV      -0.014000
     49 C49          3.6870    -1.0100    -1.6080 ca         1 1BV      -0.214000
     50 C50          5.0500    -0.6600    -1.5550 ca         1 1BV       0.151100
     51 C51          5.7090    -0.5780    -0.3060 ca         1 1BV      -0.123300
     52 O52          5.6100    -1.0430     4.4260 os         1 1BV      -0.468300
     53 C53          6.8880    -0.4000     4.5930 c3         1 1BV       0.184300
     54 C54          6.6730     1.1310     4.5730 c3         1 1BV      -0.106600
     55 C55          7.4560    -0.8890     5.9380 c3         1 1BV      -0.106600
     56 O56          5.7680    -0.4060    -2.7100 os         1 1BV      -0.346100
     57 C57          5.1790    -0.4670    -4.0200 c3         1 1BV       0.147900
     58 C58          7.1960    -0.1940    -0.2400 c3         1 1BV      -0.025800
     59 H1         -10.0210    -3.8040     1.0060 hc         1 1BV       0.091450
     60 H2         -10.8420    -3.1870    -0.5060 hc         1 1BV       0.091450
     61 H3          -9.6350    -0.9860    -0.2610 hc         1 1BV       0.091450
     62 H4          -8.8210    -1.6050     1.2530 hc         1 1BV       0.091450
     63 H5          -5.3010    -3.4760    -1.0720 hn         1 1BV       0.351500
     64 H6          -3.4260    -1.4280    -2.8470 hc         1 1BV       0.084200
     65 H7          -5.2460    -1.5610    -2.7700 hc         1 1BV       0.084200
     66 H8          -3.5000     0.7160    -1.5920 hc         1 1BV       0.101700
     67 H9          -6.5400     0.3470    -1.7970 hc         1 1BV       0.065200
     68 H10         -5.8560     1.3090    -0.5060 hc         1 1BV       0.065200
     69 H11         -5.5160     1.8080    -3.5010 hc         1 1BV       0.045200
     70 H12         -6.5730     2.7090    -2.4350 hc         1 1BV       0.045200
     71 H13         -2.3520    -2.1420    -0.5580 hn         1 1BV       0.320500
     72 H14         -0.5520    -1.6750     0.2570 h1         1 1BV       0.078700
     73 H15         -1.3670    -0.9160     3.1570 hc         1 1BV       0.080200
     74 H16         -0.8650    -2.5000     2.5680 hc         1 1BV       0.080200
     75 H17          1.0430    -1.0790     3.8140 h1         1 1BV       0.079700
     76 H18          0.3670     1.1450     2.8600 h1         1 1BV       0.081200
     77 H19          1.8310     0.7680     1.9320 h1         1 1BV       0.081200
     78 H20          0.9240     2.6910     0.9050 h1         1 1BV       0.094700
     79 H21         -0.0510     4.0190    -1.5210 ha         1 1BV       0.186000
     80 H22         -1.8870     2.8840     0.6860 ha         1 1BV       0.173000
     81 H23         -2.9940     5.1260    -0.0700 hc         1 1BV       0.052200
     82 H24         -2.4020     4.7960    -1.6910 hc         1 1BV       0.052200
     83 H25         -4.2930     2.9410    -0.0910 ha         1 1BV       0.167000
     84 H26         -4.0840     3.6430    -3.0920 ha         1 1BV       0.184000
     85 H27          1.8910     2.6640    -1.9470 hn         1 1BV       0.341500
     86 H28          7.4430     3.0730    -2.4160 h4         1 1BV       0.160000
     87 H29          6.0470     2.7890    -0.0710 ha         1 1BV       0.163000
     88 H30          5.6930     4.2230    -4.9440 h1         1 1BV       0.060033
     89 H31          6.6240     2.6940    -4.9330 h1         1 1BV       0.060033
     90 H32          4.8640     2.6670    -5.2490 h1         1 1BV       0.060033
     91 H33         -9.4070    -2.3520    -2.4700 hc         1 1BV       0.047367
     92 H34         -7.6480    -2.2470    -2.3630 hc         1 1BV       0.047367
     93 H35         -8.4370    -3.8280    -2.5340 hc         1 1BV       0.047367
     94 H36          3.1460    -1.7100     4.1530 ha         1 1BV       0.142000
     95 H37          1.9350    -1.5730    -0.5010 ha         1 1BV       0.124000
     96 H38          3.1530    -1.0750    -2.5510 ha         1 1BV       0.118000
     97 H39          7.5890    -0.6880     3.7980 h1         1 1BV       0.062700
     98 H40          7.6170     1.6500     4.7760 hc         1 1BV       0.046367
     99 H41          6.3120     1.4670     3.5940 hc         1 1BV       0.046367
    100 H42          5.9450     1.4330     5.3340 hc         1 1BV       0.046367
    101 H43          7.5870    -1.9780     5.9250 hc         1 1BV       0.046367
    102 H44          8.4330    -0.4310     6.1310 hc         1 1BV       0.046367
    103 H45          6.7840    -0.6300     6.7650 hc         1 1BV       0.046367
    104 H46          4.8020    -1.4750    -4.2320 h1         1 1BV       0.041367
    105 H47          4.3510     0.2470    -4.1100 h1         1 1BV       0.041367
    106 H48          5.9260    -0.2160    -4.7840 h1         1 1BV       0.041367
    107 H49          7.8140    -1.0740    -0.0250 hc         1 1BV       0.043367
    108 H50          7.5680     0.2480    -1.1710 hc         1 1BV       0.043367
    109 H51          7.3830     0.5450     0.5470 hc         1 1BV       0.043367
@<TRIPOS>BOND
     1     1     2 1   
     2     1     3 1   
     3     1    59 1   
     4     1    60 1   
     5     2     3 1   
     6     2    61 1   
     7     2    62 1   
     8     3     4 1   
     9     3    40 1   
    10     4     5 2   
    11     4     6 2   
    12     4     7 1   
    13     7     8 1   
    14     7    63 1   
    15     8     9 2   
    16     8    10 1   
    17    10    11 1   
    18    10    12 1   
    19    10    15 1   
    20    11    12 1   
    21    11    64 1   
    22    11    65 1   
    23    12    13 1   
    24    12    66 1   
    25    13    14 1   
    26    13    67 1   
    27    13    68 1   
    28    14    30 1   
    29    14    69 1   
    30    14    70 1   
    31    15    16 1   
    32    15    71 1   
    33    16    17 2   
    34    16    18 1   
    35    18    19 1   
    36    18    22 1   
    37    18    72 1   
    38    19    20 1   
    39    19    73 1   
    40    19    74 1   
    41    20    21 1   
    42    20    41 1   
    43    20    75 1   
    44    21    22 1   
    45    21    76 1   
    46    21    77 1   
    47    22    23 1   
    48    23    24 2   
    49    23    25 1   
    50    25    26 1   
    51    25    31 1   
    52    25    78 1   
    53    26    27 2   
    54    26    79 1   
    55    27    28 1   
    56    27    80 1   
    57    28    29 1   
    58    28    81 1   
    59    28    82 1   
    60    29    30 2   
    61    29    83 1   
    62    30    84 1   
    63    31    32 1   
    64    31    85 1   
    65    32    33 2   
    66    32    34 1   
    67    34    35 2   
    68    34    38 1   
    69    35    36 1   
    70    36    37 1   
    71    36    39 1   
    72    37    38 2   
    73    37    86 1   
    74    38    87 1   
    75    39    88 1   
    76    39    89 1   
    77    39    90 1   
    78    40    91 1   
    79    40    92 1   
    80    40    93 1   
    81    41    42 1   
    82    42    43 ar  
    83    42    47 ar  
    84    43    44 ar  
    85    43    94 1   
    86    44    45 ar  
    87    44    52 1   
    88    45    46 ar  
    89    46    47 ar  
    90    46    51 ar  
    91    47    48 ar  
    92    48    49 ar  
    93    48    95 1   
    94    49    50 ar  
    95    49    96 1   
    96    50    51 ar  
    97    50    56 1   
    98    51    58 1   
    99    52    53 1   
   100    53    54 1   
   101    53    55 1   
   102    53    97 1   
   103    54    98 1   
   104    54    99 1   
   105    54   100 1   
   106    55   101 1   
   107    55   102 1   
   108    55   103 1   
   109    56    57 1   
   110    57   104 1   
   111    57   105 1   
   112    57   106 1   
   113    58   107 1   
   114    58   108 1   
   115    58   109 1   
@<TRIPOS>SUBSTRUCTURE
     1 1BV         1 TEMP              0 ****  ****    0 ROOT
