@<TRIPOS>MOLECULE
1BV
  109   115     1     0     0
SMALL
abcg2


@<TRIPOS>ATOM
      1 C1          -8.8410    -4.4820     0.7200 cx         1 1BV      -0.068400
      2 C2          -8.8770    -3.3530    -0.2550 cx         1 1BV      -0.068400
      3 C3          -7.5660    -3.9880     0.0900 cx         1 1BV      -0.401000
      4 S4          -6.5020    -3.1150     1.1980 s6         1 1BV       1.257800
      5 O5          -7.2780    -2.2290     2.0440 o          1 1BV      -0.526000
      6 O6          -5.5840    -4.0610     1.8100 o          1 1BV      -0.526000
      7 N7          -5.5060    -2.2010     0.2030 ns         1 1BV      -0.573300
      8 C8          -5.8800    -1.0750    -0.4900 c          1 1BV       0.683100
      9 O9          -7.0190    -0.6680    -0.5060 o          1 1BV      -0.558100
     10 C10         -4.7650    -0.4370    -1.2480 cx         1 1BV      -0.077600
     11 C11         -5.0980     0.0620    -2.6370 cx         1 1BV      -0.103400
     12 C12         -4.8090     1.0460    -1.5660 cx         1 1BV      -0.066700
     13 C13         -5.7880     2.0540    -1.0180 c3         1 1BV      -0.042400
     14 C14         -5.4780     3.4610    -1.5570 c3         1 1BV      -0.038200
     15 N15         -3.4540    -0.9650    -1.0290 ns         1 1BV      -0.475900
     16 C16         -2.7250    -0.4870     0.0090 c          1 1BV       0.583100
     17 O17         -3.2300     0.1210     0.9300 o          1 1BV      -0.558100
     18 C18         -1.2250    -0.7600    -0.0230 c5         1 1BV       0.030700
     19 C19         -0.7860    -1.7900     1.0300 c5         1 1BV      -0.084400
     20 C20          0.4970    -1.2070     1.6000 c5         1 1BV       0.158300
     21 C21          0.1870     0.2800     1.6330 c5         1 1BV       0.072000
     22 N22         -0.5410     0.4550     0.3880 n          1 1BV      -0.389800
     23 C23         -0.6570     1.5610    -0.3570 c          1 1BV       0.600100
     24 O24         -1.2760     1.5550    -1.4120 o          1 1BV      -0.617100
     25 C25          0.0390     2.8310     0.1430 c3         1 1BV       0.086900
     26 C26         -0.7020     4.0380    -0.3610 c2         1 1BV      -0.230200
     27 C27         -1.6780     4.6040     0.3390 c2         1 1BV      -0.186200
     28 C28         -2.5720     5.7010    -0.1470 c3         1 1BV      -0.006000
     29 C29         -3.9340     5.1900    -0.5650 c2         1 1BV      -0.226200
     30 C30         -4.1520     3.9930    -1.1020 c2         1 1BV      -0.215200
     31 N31          1.4140     2.7620    -0.2970 ns         1 1BV      -0.499900
     32 C32          2.4790     2.9050     0.5160 c          1 1BV       0.540600
     33 O33          2.4010     3.1950     1.7010 o          1 1BV      -0.602100
     34 C34          3.7820     2.6550    -0.1280 cc         1 1BV       0.184500
     35 N35          3.8760     2.3370    -1.4110 nd         1 1BV      -0.525800
     36 N36          5.1600     2.1420    -1.6310 na         1 1BV       0.157800
     37 C37          5.9060     2.3290    -0.5240 cd         1 1BV      -0.175000
     38 C38          5.0410     2.6680     0.4860 cc         1 1BV      -0.165000
     39 C39          5.6290     1.8350    -2.9610 c3         1 1BV       0.067900
     40 C40         -6.8260    -4.8360    -0.9110 c3         1 1BV      -0.042100
     41 O41          1.5300    -1.4700     0.6580 os         1 1BV      -0.343100
     42 C42          2.8000    -1.1690     0.9480 ca         1 1BV       0.221100
     43 C43          3.2590    -0.8040     2.1820 ca         1 1BV      -0.290000
     44 C44          4.6570    -0.6010     2.3260 ca         1 1BV       0.655300
     45 N45          5.5240    -0.7150     1.3730 nb         1 1BV      -0.799000
     46 C46          5.0870    -1.0380     0.1280 ca         1 1BV       0.379000
     47 C47          3.7180    -1.2800    -0.1420 ca         1 1BV      -0.159000
     48 C48          3.3170    -1.6130    -1.4420 ca         1 1BV      -0.014000
     49 C49          4.2390    -1.7160    -2.4520 ca         1 1BV      -0.214000
     50 C50          5.6010    -1.4830    -2.1830 ca         1 1BV       0.151100
     51 C51          6.0370    -1.1370    -0.9130 ca         1 1BV      -0.123300
     52 O52          5.0460    -0.2960     3.5660 os         1 1BV      -0.468300
     53 C53          6.4470    -0.1810     3.8650 c3         1 1BV       0.184300
     54 C54          6.9790     1.1810     3.4580 c3         1 1BV      -0.106600
     55 C55          6.5780    -0.4280     5.3550 c3         1 1BV      -0.106600
     56 O56          6.5560    -1.5650    -3.1290 os         1 1BV      -0.346100
     57 C57          6.1900    -1.9030    -4.4520 c3         1 1BV       0.147900
     58 C58          7.4920    -0.8730    -0.6670 c3         1 1BV      -0.025800
     59 H1          -9.0380    -4.2580     1.7600 hc         1 1BV       0.091450
     60 H2          -9.1640    -5.4660     0.4050 hc         1 1BV       0.091450
     61 H3          -9.2340    -3.5400    -1.2600 hc         1 1BV       0.091450
     62 H4          -9.0950    -2.3650     0.1230 hc         1 1BV       0.091450
     63 H5          -4.5550    -2.5380     0.1170 hn         1 1BV       0.351500
     64 H6          -4.3580    -0.1120    -3.4090 hc         1 1BV       0.084200
     65 H7          -6.1240    -0.0690    -2.9570 hc         1 1BV       0.084200
     66 H8          -3.7930     1.4170    -1.6030 hc         1 1BV       0.101700
     67 H9          -6.8110     1.7880    -1.2780 hc         1 1BV       0.065200
     68 H10         -5.7260     2.0670     0.0730 hc         1 1BV       0.065200
     69 H11         -5.4960     3.4220    -2.6520 hc         1 1BV       0.045200
     70 H12         -6.2760     4.1460    -1.2610 hc         1 1BV       0.045200
     71 H13         -2.9750    -1.3970    -1.8060 hn         1 1BV       0.320500
     72 H14         -0.9040    -1.0630    -1.0230 h1         1 1BV       0.078700
     73 H15         -1.5140    -1.8610     1.8390 hc         1 1BV       0.080200
     74 H16         -0.6550    -2.7860     0.6100 hc         1 1BV       0.080200
     75 H17          0.7400    -1.6210     2.5810 h1         1 1BV       0.079700
     76 H18         -0.4360     0.5100     2.5010 h1         1 1BV       0.081200
     77 H19          1.0800     0.8990     1.6820 h1         1 1BV       0.081200
     78 H20          0.0370     2.8530     1.2350 h1         1 1BV       0.094700
     79 H21         -0.4560     4.3940    -1.3570 ha         1 1BV       0.186000
     80 H22         -1.9130     4.2090     1.3250 ha         1 1BV       0.173000
     81 H23         -2.7030     6.4420     0.6440 hc         1 1BV       0.052200
     82 H24         -2.1070     6.2330    -0.9840 hc         1 1BV       0.052200
     83 H25         -4.7650     5.8780    -0.4290 ha         1 1BV       0.167000
     84 H26         -3.2950     3.3400    -1.2370 ha         1 1BV       0.184000
     85 H27          1.5920     2.5350    -1.2650 hn         1 1BV       0.341500
     86 H28          6.9760     2.2030    -0.5340 h4         1 1BV       0.160000
     87 H29          5.2750     2.8770     1.5150 ha         1 1BV       0.163000
     88 H30          5.6740     2.7360    -3.5710 h1         1 1BV       0.060033
     89 H31          6.6210     1.3990    -2.8980 h1         1 1BV       0.060033
     90 H32          4.9550     1.1210    -3.4250 h1         1 1BV       0.060033
     91 H33         -7.5480    -5.3900    -1.5090 hc         1 1BV       0.047367
     92 H34         -6.2340    -4.2270    -1.5940 hc         1 1BV       0.047367
     93 H35         -6.1720    -5.5590    -0.4250 hc         1 1BV       0.047367
     94 H36          2.6200    -0.7050     3.0480 ha         1 1BV       0.142000
     95 H37          2.2740    -1.7900    -1.6640 ha         1 1BV       0.124000
     96 H38          3.9020    -1.9740    -3.4460 ha         1 1BV       0.118000
     97 H39          6.9880    -0.9570     3.3170 h1         1 1BV       0.062700
     98 H40          8.0310     1.2620     3.7310 hc         1 1BV       0.046367
     99 H41          6.9020     1.3290     2.3820 hc         1 1BV       0.046367
    100 H42          6.4370     1.9820     3.9640 hc         1 1BV       0.046367
    101 H43          6.2020    -1.4130     5.6300 hc         1 1BV       0.046367
    102 H44          7.6280    -0.3790     5.6450 hc         1 1BV       0.046367
    103 H45          6.0370     0.3240     5.9330 hc         1 1BV       0.046367
    104 H46          5.7330    -2.8940    -4.5100 h1         1 1BV       0.041367
    105 H47          5.5040    -1.1730    -4.8880 h1         1 1BV       0.041367
    106 H48          7.1090    -1.9080    -5.0340 h1         1 1BV       0.041367
    107 H49          8.1020    -1.7580    -0.8580 hc         1 1BV       0.043367
    108 H50          7.8720    -0.0850    -1.3210 hc         1 1BV       0.043367
    109 H51          7.6570    -0.5640     0.3610 hc         1 1BV       0.043367
@<TRIPOS>BOND
     1     1     2 1   
     2     1     3 1   
     3     1    59 1   
     4     1    60 1   
     5     2     3 1   
     6     2    61 1   
     7     2    62 1   
     8     3     4 1   
     9     3    40 1   
    10     4     5 2   
    11     4     6 2   
    12     4     7 1   
    13     7     8 1   
    14     7    63 1   
    15     8     9 2   
    16     8    10 1   
    17    10    11 1   
    18    10    12 1   
    19    10    15 1   
    20    11    12 1   
    21    11    64 1   
    22    11    65 1   
    23    12    13 1   
    24    12    66 1   
    25    13    14 1   
    26    13    67 1   
    27    13    68 1   
    28    14    30 1   
    29    14    69 1   
    30    14    70 1   
    31    15    16 1   
    32    15    71 1   
    33    16    17 2   
    34    16    18 1   
    35    18    19 1   
    36    18    22 1   
    37    18    72 1   
    38    19    20 1   
    39    19    73 1   
    40    19    74 1   
    41    20    21 1   
    42    20    41 1   
    43    20    75 1   
    44    21    22 1   
    45    21    76 1   
    46    21    77 1   
    47    22    23 1   
    48    23    24 2   
    49    23    25 1   
    50    25    26 1   
    51    25    31 1   
    52    25    78 1   
    53    26    27 2   
    54    26    79 1   
    55    27    28 1   
    56    27    80 1   
    57    28    29 1   
    58    28    81 1   
    59    28    82 1   
    60    29    30 2   
    61    29    83 1   
    62    30    84 1   
    63    31    32 1   
    64    31    85 1   
    65    32    33 2   
    66    32    34 1   
    67    34    35 2   
    68    34    38 1   
    69    35    36 1   
    70    36    37 1   
    71    36    39 1   
    72    37    38 2   
    73    37    86 1   
    74    38    87 1   
    75    39    88 1   
    76    39    89 1   
    77    39    90 1   
    78    40    91 1   
    79    40    92 1   
    80    40    93 1   
    81    41    42 1   
    82    42    43 ar  
    83    42    47 ar  
    84    43    44 ar  
    85    43    94 1   
    86    44    45 ar  
    87    44    52 1   
    88    45    46 ar  
    89    46    47 ar  
    90    46    51 ar  
    91    47    48 ar  
    92    48    49 ar  
    93    48    95 1   
    94    49    50 ar  
    95    49    96 1   
    96    50    51 ar  
    97    50    56 1   
    98    51    58 1   
    99    52    53 1   
   100    53    54 1   
   101    53    55 1   
   102    53    97 1   
   103    54    98 1   
   104    54    99 1   
   105    54   100 1   
   106    55   101 1   
   107    55   102 1   
   108    55   103 1   
   109    56    57 1   
   110    57   104 1   
   111    57   105 1   
   112    57   106 1   
   113    58   107 1   
   114    58   108 1   
   115    58   109 1   
@<TRIPOS>SUBSTRUCTURE
     1 1BV         1 TEMP              0 ****  ****    0 ROOT
