@<TRIPOS>MOLECULE
1BW
   36    36     1     0     0
SMALL
bcc


@<TRIPOS>ATOM
      1 C1           0.6000    -1.3630    -0.3630 c6         1 1BW       0.152800
      2 C2          -0.0420    -0.0990     0.2010 c6         1 1BW       0.074700
      3 N2          -1.3820     0.0780    -0.3090 ns         1 1BW      -0.585900
      4 C7          -2.4990     0.1020     0.4440 c          1 1BW       0.667100
      5 C8          -3.7790     0.3430    -0.3290 c3         1 1BW      -0.159400
      6 O7          -2.4900    -0.0350     1.6590 o          1 1BW      -0.590100
      7 C3           0.8210     1.1170    -0.1400 c6         1 1BW       0.098100
      8 O3           0.3470     2.2900     0.4800 oh         1 1BW      -0.596800
      9 C4           2.2640     0.9080     0.3070 c6         1 1BW       0.156100
     10 O4           3.0800     1.9740    -0.1150 oh         1 1BW      -0.602800
     11 C5           2.8110    -0.3900    -0.2810 c6         1 1BW       0.175500
     12 C6           4.2320    -0.6510     0.1880 c3         1 1BW       0.140400
     13 O6           4.6830    -1.8450    -0.4160 oh         1 1BW      -0.613800
     14 N5           1.9480    -1.4740     0.1500 n7         1 1BW      -0.816200
     15 C9          -4.9720    -0.4200     0.2320 c3         1 1BW      -0.066400
     16 C10         -6.2440    -0.1390    -0.5550 c3         1 1BW      -0.092100
     17 H1           0.0230    -2.2330    -0.0450 h1         1 1BW       0.037200
     18 H2           0.5580    -1.3300    -1.4650 h1         1 1BW       0.037200
     19 H3          -0.1090    -0.1950     1.2860 h1         1 1BW       0.112700
     20 H4          -1.4860     0.1640    -1.3090 hn         1 1BW       0.304500
     21 H5          -3.9810     1.4190    -0.2930 hc         1 1BW       0.053700
     22 H6          -3.6420     0.0980    -1.3860 hc         1 1BW       0.053700
     23 H7           0.8290     1.2350    -1.2360 h1         1 1BW       0.031700
     24 H8          -0.4500     2.5770     0.0260 ho         1 1BW       0.412000
     25 H9           2.2750     0.8120     1.4050 h1         1 1BW       0.061700
     26 H10          2.7050     2.7910     0.2300 ho         1 1BW       0.424000
     27 H11          2.8240    -0.2830    -1.3820 h1         1 1BW       0.042700
     28 H12          4.8690     0.1970    -0.0830 h1         1 1BW       0.039200
     29 H13          4.2340    -0.7310     1.2840 h1         1 1BW       0.039200
     30 H14          5.5390    -2.0700    -0.0400 ho         1 1BW       0.410000
     31 H15          2.3480    -2.3590    -0.1300 hn         1 1BW       0.387800
     32 H17         -4.7610    -1.4920     0.2130 hc         1 1BW       0.055200
     33 H18         -5.1190    -0.1520     1.2800 hc         1 1BW       0.055200
     34 H19         -6.4980     0.9220    -0.5300 hc         1 1BW       0.033367
     35 H20         -6.1340    -0.4260    -1.6030 hc         1 1BW       0.033367
     36 H21         -7.0900    -0.6920    -0.1480 hc         1 1BW       0.033367
@<TRIPOS>BOND
     1     1     2 1   
     2     1    14 1   
     3     1    17 1   
     4     1    18 1   
     5     2     3 1   
     6     2     7 1   
     7     2    19 1   
     8     3     4 1   
     9     3    20 1   
    10     4     5 1   
    11     4     6 2   
    12     5    15 1   
    13     5    21 1   
    14     5    22 1   
    15     7     8 1   
    16     7     9 1   
    17     7    23 1   
    18     8    24 1   
    19     9    10 1   
    20     9    11 1   
    21     9    25 1   
    22    10    26 1   
    23    11    12 1   
    24    11    14 1   
    25    11    27 1   
    26    12    13 1   
    27    12    28 1   
    28    12    29 1   
    29    13    30 1   
    30    14    31 1   
    31    15    16 1   
    32    15    32 1   
    33    15    33 1   
    34    16    34 1   
    35    16    35 1   
    36    16    36 1   
@<TRIPOS>SUBSTRUCTURE
     1 1BW         1 TEMP              0 ****  ****    0 ROOT
