@<TRIPOS>MOLECULE
1BW
   36    36     1     0     0
SMALL
No Charge or Current Charge


@<TRIPOS>ATOM
      1 C1           0.6010    -1.4130    -0.5430 c6         1 1BW       0.152800
      2 C2          -0.0940    -0.2050     0.1520 c6         1 1BW       0.074700
      3 N2          -1.4650    -0.0350    -0.3810 ns         1 1BW      -0.518900
      4 C7          -2.4810     0.6710     0.2180 c          1 1BW       0.600100
      5 C8          -3.8260     0.6410    -0.5120 c3         1 1BW      -0.159400
      6 O7          -2.2940     1.3150     1.2390 o          1 1BW      -0.590100
      7 C3           0.7800     1.0760    -0.0500 c6         1 1BW       0.121300
      8 O3           0.2120     2.2090     0.6350 oh         1 1BW      -0.659000
      9 C4           2.2410     0.8390     0.4440 c6         1 1BW       0.179300
     10 O4           3.0150     2.0290     0.2060 oh         1 1BW      -0.665000
     11 C5           2.8510    -0.4130    -0.2640 c6         1 1BW       0.175500
     12 C6           4.3120    -0.7200     0.2110 c3         1 1BW       0.163600
     13 O6           4.8700    -1.8840    -0.4350 oh         1 1BW      -0.676000
     14 N5           1.9860    -1.6120    -0.0550 n7         1 1BW      -0.871400
     15 C9          -4.8600    -0.2320     0.2390 c3         1 1BW      -0.066400
     16 C10         -6.2280    -0.2870    -0.4680 c3         1 1BW      -0.092100
     17 H1           0.0180    -2.3270    -0.3560 h1         1 1BW       0.037200
     18 H2           0.6190    -1.2500    -1.6320 h1         1 1BW       0.037200
     19 H3          -0.1590    -0.4270     1.2290 h1         1 1BW       0.112700
     20 H4          -1.7080    -0.5170    -1.2390 hn         1 1BW       0.304500
     21 H5          -4.2150     1.6640    -0.5730 hc         1 1BW       0.053700
     22 H6          -3.6960     0.2320    -1.5210 hc         1 1BW       0.053700
     23 H7           0.8140     1.2860    -1.1300 h1         1 1BW       0.031700
     24 H8          -0.7100     1.9430     0.8900 ho         1 1BW       0.451000
     25 H9           2.2050     0.6320     1.5250 h1         1 1BW       0.061700
     26 H10          2.3840     2.7660     0.3750 ho         1 1BW       0.463000
     27 H11          2.8990    -0.2040    -1.3440 h1         1 1BW       0.042700
     28 H12          4.9370     0.1590     0.0050 h1         1 1BW       0.039200
     29 H13          4.2970    -0.8630     1.3000 h1         1 1BW       0.039200
     30 H14          5.7640    -2.0230    -0.0500 ho         1 1BW       0.449000
     31 H15          2.4240    -2.4010    -0.5530 hn         1 1BW       0.443000
     32 H17         -4.4690    -1.2520     0.3410 hc         1 1BW       0.055200
     33 H18         -4.9990     0.1590     1.2550 hc         1 1BW       0.055200
     34 H19         -6.6610     0.7170    -0.5550 hc         1 1BW       0.033367
     35 H20         -6.1280    -0.7090    -1.4750 hc         1 1BW       0.033367
     36 H21         -6.9260    -0.9140     0.0990 hc         1 1BW       0.033367
@<TRIPOS>BOND
     1     1     2 1   
     2     1    14 1   
     3     1    17 1   
     4     1    18 1   
     5     2     3 1   
     6     2     7 1   
     7     2    19 1   
     8     3     4 1   
     9     3    20 1   
    10     4     5 1   
    11     4     6 2   
    12     5    15 1   
    13     5    21 1   
    14     5    22 1   
    15     7     8 1   
    16     7     9 1   
    17     7    23 1   
    18     8    24 1   
    19     9    10 1   
    20     9    11 1   
    21     9    25 1   
    22    10    26 1   
    23    11    12 1   
    24    11    14 1   
    25    11    27 1   
    26    12    13 1   
    27    12    28 1   
    28    12    29 1   
    29    13    30 1   
    30    14    31 1   
    31    15    16 1   
    32    15    32 1   
    33    15    33 1   
    34    16    34 1   
    35    16    35 1   
    36    16    36 1   
@<TRIPOS>SUBSTRUCTURE
     1 1BW         1 TEMP              0 ****  ****    0 ROOT
