@<TRIPOS>MOLECULE
1BY
   25    25     1     0     0
SMALL
No Charge or Current Charge


@<TRIPOS>ATOM
      1 C5           2.8820     2.9640     0.6350 ca         1 1BY      -0.056000
      2 C4           1.8510     2.0310     0.4840 ca         1 1BY      -0.268000
      3 C6           2.9380     3.6720     1.8420 ca         1 1BY      -0.426000
      4 C7           1.9780     3.4240     2.8380 ca         1 1BY       0.385900
      5 N2           0.9870     2.5260     2.6900 nb         1 1BY      -0.755000
      6 C3           0.9350     1.8600     1.5350 ca         1 1BY       0.598900
      7 N1          -0.0940     0.9760     1.4990 nu         1 1BY      -0.745100
      8 C2          -0.7900     0.5120     0.3310 c3         1 1BY       0.260800
      9 C1          -2.0020    -0.3140     0.7350 c3         1 1BY      -0.730700
     10 P1          -3.1110     0.5260     1.8480 p5         1 1BY       1.361000
     11 O1          -2.3180     1.1020     2.9750 o          1 1BY      -0.956000
     12 O2          -4.2310    -0.3210     2.3450 o          1 1BY      -0.956000
     13 O3          -3.6750     1.6610     1.0640 o          1 1BY      -0.956000
     14 P2          -1.6300    -1.9240     1.4080 p5         1 1BY       1.361000
     15 O4          -2.7900    -2.8350     1.1860 o          1 1BY      -0.956000
     16 O5          -0.4950    -2.4750     0.6110 o          1 1BY      -0.956000
     17 O6          -1.2480    -1.8870     2.8480 o          1 1BY      -0.956000
     18 H5           3.6130     3.1300    -0.1530 ha         1 1BY       0.033000
     19 H4           1.7640     1.4500    -0.4290 ha         1 1BY       0.110000
     20 H6           3.7190     4.4070     2.0100 ha         1 1BY       0.040000
     21 H7           2.0050     3.9610     3.7840 h4         1 1BY      -0.061900
     22 HN1         -0.7360     1.1180     2.2940 hn         1 1BY       0.602000
     23 H21         -1.1300     1.3830    -0.2450 h1         1 1BY      -0.000800
     24 H22         -0.1160    -0.0670    -0.3140 h1         1 1BY      -0.000800
     25 H1          -2.5800    -0.5140    -0.1700 hc         1 1BY       0.028700
@<TRIPOS>BOND
     1     1     2 ar  
     2     1     3 ar  
     3     1    18 1   
     4     2     6 ar  
     5     2    19 1   
     6     3     4 ar  
     7     3    20 1   
     8     4     5 ar  
     9     4    21 1   
    10     5     6 ar  
    11     6     7 1   
    12     7     8 1   
    13     7    22 1   
    14     8     9 1   
    15     8    23 1   
    16     8    24 1   
    17     9    10 1   
    18     9    14 1   
    19     9    25 1   
    20    10    11 1   
    21    10    12 1   
    22    10    13 1   
    23    14    15 1   
    24    14    16 1   
    25    14    17 1   
@<TRIPOS>SUBSTRUCTURE
     1 1BY         1 TEMP              0 ****  ****    0 ROOT
