@<TRIPOS>MOLECULE
1BY
   25    25     1     0     0
SMALL
bcc


@<TRIPOS>ATOM
      1 C5           2.7810     2.8850     0.6130 ca         1 1BY      -0.074000
      2 C4           1.6520     2.1070     0.5000 ca         1 1BY      -0.351300
      3 C6           3.0840     3.5100     1.8230 ca         1 1BY      -0.509300
      4 C7           2.1970     3.3070     2.8670 ca         1 1BY       0.451200
      5 N2           1.1040     2.5620     2.7960 nb         1 1BY      -0.755000
      6 C3           0.8100     1.9490     1.6320 ca         1 1BY       0.664200
      7 N1          -0.2870     1.1890     1.6090 nu         1 1BY      -0.689900
      8 C2          -0.8440     0.5960     0.4150 c3         1 1BY       0.260800
      9 C1          -1.9950    -0.3470     0.7620 c3         1 1BY      -0.415100
     10 P1          -3.3220     0.5680     1.6940 p5         1 1BY       1.203200
     11 O1          -2.6090     1.2040     2.9210 o          1 1BY      -0.956000
     12 O2          -4.4110    -0.4290     2.0950 o          1 1BY      -0.956000
     13 O3          -3.8240     1.6450     0.7130 o          1 1BY      -0.956000
     14 P2          -1.3850    -1.9600     1.4770 p5         1 1BY       1.203200
     15 O4          -2.5030    -2.9850     1.2200 o          1 1BY      -0.956000
     16 O5          -0.1130    -2.2900     0.6620 o          1 1BY      -0.956000
     17 O6          -1.0880    -1.7470     2.9670 o          1 1BY      -0.956000
     18 H5           3.4310     3.0110    -0.2450 ha         1 1BY       0.051000
     19 H4           1.4070     1.6280    -0.4370 ha         1 1BY       0.128000
     20 H6           3.9610     4.1300     1.9470 ha         1 1BY       0.058000
     21 H7           2.3820     3.7790     3.8280 h4         1 1BY      -0.061900
     22 HN1         -0.9880     1.2590     2.3730 hn         1 1BY       0.546800
     23 H21         -1.1970     1.3850    -0.2670 h1         1 1BY      -0.000800
     24 H22         -0.0720     0.0310    -0.1130 h1         1 1BY      -0.000800
     25 H1          -2.4450    -0.6220    -0.2030 hc         1 1BY       0.028700
@<TRIPOS>BOND
     1     1     2 ar  
     2     1     3 ar  
     3     1    18 1   
     4     2     6 ar  
     5     2    19 1   
     6     3     4 ar  
     7     3    20 1   
     8     4     5 ar  
     9     4    21 1   
    10     5     6 ar  
    11     6     7 1   
    12     7     8 1   
    13     7    22 1   
    14     8     9 1   
    15     8    23 1   
    16     8    24 1   
    17     9    10 1   
    18     9    14 1   
    19     9    25 1   
    20    10    11 1   
    21    10    12 1   
    22    10    13 1   
    23    14    15 1   
    24    14    16 1   
    25    14    17 1   
@<TRIPOS>SUBSTRUCTURE
     1 1BY         1 TEMP              0 ****  ****    0 ROOT
