@<TRIPOS>MOLECULE
1C1
   48    50     1     0     0
SMALL
abcg2


@<TRIPOS>ATOM
      1 N01         -4.7930     4.0010    -1.0130 nv         1 1C1      -1.032500
      2 C02         -5.0210     3.5190     0.1990 cz         1 1C1       0.935600
      3 N03         -4.4790     2.3700     0.5860 nu         1 1C1      -0.468800
      4 C04         -3.6180     1.5370    -0.2320 c3         1 1C1       0.068600
      5 C05         -3.5630     0.1360     0.3430 c5         1 1C1      -0.109700
      6 C06         -4.8950    -0.6290     0.3110 c5         1 1C1      -0.024100
      7 C07         -4.4540    -2.0640     0.2570 ca         1 1C1      -0.096300
      8 C08         -5.1760    -3.2140     0.5340 ca         1 1C1      -0.087000
      9 C09         -4.5490    -4.4500     0.4050 ca         1 1C1      -0.088000
     10 C10         -3.2200    -4.5320     0.0030 ca         1 1C1      -0.096000
     11 C11         -2.4960    -3.3770    -0.2780 ca         1 1C1      -0.068000
     12 C12         -3.1260    -2.1520    -0.1450 ca         1 1C1      -0.125300
     13 C13         -2.5740    -0.7750    -0.4120 c5         1 1C1       0.168000
     14 N14         -1.2110    -0.5870     0.0150 ns         1 1C1      -0.481900
     15 C15         -0.1880    -0.3550    -0.8040 c          1 1C1       0.518100
     16 O16         -0.2390    -0.2730    -2.0210 o          1 1C1      -0.593100
     17 C17          1.1450    -0.1810    -0.0560 c          1 1C1       0.524100
     18 O18          1.2040    -0.2390     1.1570 o          1 1C1      -0.573100
     19 N19          2.1630     0.0370    -0.9040 ns         1 1C1      -0.111000
     20 C20          3.5080     0.2640    -0.6200 ca         1 1C1      -0.010000
     21 C21          4.0300     0.2890     0.6720 ca         1 1C1      -0.173000
     22 C22          5.3780     0.5320     0.8370 ca         1 1C1       0.209000
     23 F23          5.8750     0.5560     2.0740 f          1 1C1      -0.152000
     24 C24          6.2280     0.7500    -0.2320 ca         1 1C1       0.049000
     25 CL1          7.9010     1.0490     0.0460 cl         1 1C1      -0.150000
     26 C26          5.7030     0.7210    -1.5150 ca         1 1C1      -0.047000
     27 C27          4.3570     0.4800    -1.7080 ca         1 1C1      -0.165000
     28 N28         -5.8120     4.1800     1.0340 nv         1 1C1      -0.611300
     29 H1          -4.1070     3.6000    -1.6280 hn         1 1C1       0.380000
     30 H2          -5.2510     4.8390    -1.3290 hn         1 1C1       0.380000
     31 H3          -4.5560     2.1350     1.5640 hn         1 1C1       0.372000
     32 H4          -4.0190     1.4880    -1.2470 h1         1 1C1       0.072200
     33 H5          -2.6120     1.9650    -0.2890 h1         1 1C1       0.072200
     34 H6          -3.2210     0.1900     1.3830 hc         1 1C1       0.070700
     35 H7          -5.5320    -0.4100     1.1680 hc         1 1C1       0.055700
     36 H8          -5.4650    -0.3700    -0.5870 hc         1 1C1       0.055700
     37 H9          -6.2100    -3.1560     0.8530 ha         1 1C1       0.122000
     38 H10         -5.0980    -5.3560     0.6250 ha         1 1C1       0.129000
     39 H11         -2.7450    -5.5000    -0.0900 ha         1 1C1       0.131000
     40 H12         -1.4590    -3.4430    -0.5840 ha         1 1C1       0.129000
     41 H13         -2.6120    -0.5670    -1.4860 h1         1 1C1       0.095700
     42 H14         -1.0140    -0.6450     1.0050 hn         1 1C1       0.349500
     43 H15          1.9080     0.0410    -1.8830 hn         1 1C1       0.186000
     44 H16          3.4190     0.1270     1.5450 ha         1 1C1       0.164000
     45 H17          6.3490     0.8880    -2.3660 ha         1 1C1       0.140000
     46 H18          3.9630     0.4600    -2.7170 ha         1 1C1       0.125000
     47 H19         -6.1940     5.0780     0.7930 hn         1 1C1       0.380000
     48 H20         -6.0830     3.7850     1.9190 hn         1 1C1       0.380000
@<TRIPOS>BOND
     1     1     2 2   
     2     1    29 1   
     3     1    30 1   
     4     2     3 1   
     5     2    28 1   
     6     3     4 1   
     7     3    31 1   
     8     4     5 1   
     9     4    32 1   
    10     4    33 1   
    11     5     6 1   
    12     5    13 1   
    13     5    34 1   
    14     6     7 1   
    15     6    35 1   
    16     6    36 1   
    17     7     8 ar  
    18     7    12 ar  
    19     8     9 ar  
    20     8    37 1   
    21     9    10 ar  
    22     9    38 1   
    23    10    11 ar  
    24    10    39 1   
    25    11    12 ar  
    26    11    40 1   
    27    12    13 1   
    28    13    14 1   
    29    13    41 1   
    30    14    15 1   
    31    14    42 1   
    32    15    16 2   
    33    15    17 1   
    34    17    18 2   
    35    17    19 1   
    36    19    20 1   
    37    19    43 1   
    38    20    21 ar  
    39    20    27 ar  
    40    21    22 ar  
    41    21    44 1   
    42    22    23 1   
    43    22    24 ar  
    44    24    25 1   
    45    24    26 ar  
    46    26    27 ar  
    47    26    45 1   
    48    27    46 1   
    49    28    47 1   
    50    28    48 1   
@<TRIPOS>SUBSTRUCTURE
     1 1C1         1 TEMP              0 ****  ****    0 ROOT
