@<TRIPOS>MOLECULE
1C1
   48    50     1     0     0
SMALL
No Charge or Current Charge


@<TRIPOS>ATOM
      1 N01         -3.9960     4.0660    -1.1020 nv         1 1C1      -1.032500
      2 C02         -4.4580     3.5420     0.0010 cz         1 1C1       0.935600
      3 N03         -4.2090     2.2860     0.3170 nu         1 1C1      -0.468800
      4 C04         -3.4560     1.2830    -0.4560 c3         1 1C1       0.068600
      5 C05         -3.5060    -0.1110     0.2140 c5         1 1C1      -0.109700
      6 C06         -4.9630    -0.7220     0.3160 c5         1 1C1      -0.024100
      7 C07         -4.6510    -2.1930     0.3580 ca         1 1C1      -0.096300
      8 C08         -5.5000    -3.2220     0.7950 ca         1 1C1      -0.087000
      9 C09         -5.0370    -4.5520     0.7480 ca         1 1C1      -0.088000
     10 C10         -3.7430    -4.8340     0.2630 ca         1 1C1      -0.096000
     11 C11         -2.9070    -3.7870    -0.1750 ca         1 1C1      -0.068000
     12 C12         -3.3850    -2.4670    -0.1140 ca         1 1C1      -0.125300
     13 C13         -2.6570    -1.2210    -0.5410 c5         1 1C1       0.168000
     14 N14         -1.3050    -1.1010     0.0100 ns         1 1C1      -0.481900
     15 C15         -0.3360    -0.4170    -0.7140 c          1 1C1       0.518100
     16 O16         -0.5620     0.1070    -1.8040 o          1 1C1      -0.593100
     17 C17          1.1020    -0.3650    -0.0120 c          1 1C1       0.524100
     18 O18          1.3200    -0.8900     1.0820 o          1 1C1      -0.573100
     19 N19          2.0470     0.3240    -0.7650 ns         1 1C1      -0.111000
     20 C20          3.4210     0.6180    -0.5430 ca         1 1C1      -0.010000
     21 C21          4.1290     0.2130     0.6110 ca         1 1C1      -0.173000
     22 C22          5.4870     0.5400     0.7600 ca         1 1C1       0.209000
     23 F23          6.1450     0.1420     1.8730 f          1 1C1      -0.152000
     24 C24          6.1580     1.2750    -0.2350 ca         1 1C1       0.049000
     25 Cl1          7.8620     1.6920    -0.0590 cl         1 1C1      -0.150000
     26 C26          5.4610     1.6800    -1.3840 ca         1 1C1      -0.047000
     27 C27          4.1010     1.3530    -1.5340 ca         1 1C1      -0.165000
     28 N28         -5.1590     4.3160     0.7740 nv         1 1C1      -0.611300
     29 H1          -3.4270     3.5250    -1.7380 hn         1 1C1       0.380000
     30 H2          -4.1660     5.0310    -1.3520 hn         1 1C1       0.380000
     31 H3          -4.5650     1.9830     1.2130 hn         1 1C1       0.372000
     32 H4          -3.8640     1.2050    -1.4730 h1         1 1C1       0.072200
     33 H5          -2.4090     1.6020    -0.5390 h1         1 1C1       0.072200
     34 H6          -3.1180     0.0160     1.2330 hc         1 1C1       0.070700
     35 H7          -5.5000    -0.3750     1.2070 hc         1 1C1       0.055700
     36 H8          -5.5760    -0.4730    -0.5580 hc         1 1C1       0.055700
     37 H9          -6.4990    -2.9970     1.1630 ha         1 1C1       0.122000
     38 H10         -5.6810    -5.3620     1.0830 ha         1 1C1       0.129000
     39 H11         -3.3890    -5.8620     0.2240 ha         1 1C1       0.131000
     40 H12         -1.9100    -4.0000    -0.5550 ha         1 1C1       0.129000
     41 H13         -2.7110    -1.1150    -1.6350 h1         1 1C1       0.095700
     42 H14         -1.0200    -1.5060     0.8970 hn         1 1C1       0.349500
     43 H15          1.6850     0.6860    -1.6390 hn         1 1C1       0.186000
     44 H16          3.6530    -0.3540     1.4030 ha         1 1C1       0.164000
     45 H17          5.9730     2.2480    -2.1570 ha         1 1C1       0.140000
     46 H18          3.5740     1.6750    -2.4310 ha         1 1C1       0.125000
     47 H19         -5.3460     5.2720     0.5230 hn         1 1C1       0.380000
     48 H20         -5.5690     3.9900     1.6330 hn         1 1C1       0.380000
@<TRIPOS>BOND
     1     1     2 2   
     2     1    29 1   
     3     1    30 1   
     4     2     3 1   
     5     2    28 1   
     6     3     4 1   
     7     3    31 1   
     8     4     5 1   
     9     4    32 1   
    10     4    33 1   
    11     5     6 1   
    12     5    13 1   
    13     5    34 1   
    14     6     7 1   
    15     6    35 1   
    16     6    36 1   
    17     7     8 ar  
    18     7    12 ar  
    19     8     9 ar  
    20     8    37 1   
    21     9    10 ar  
    22     9    38 1   
    23    10    11 ar  
    24    10    39 1   
    25    11    12 ar  
    26    11    40 1   
    27    12    13 1   
    28    13    14 1   
    29    13    41 1   
    30    14    15 1   
    31    14    42 1   
    32    15    16 2   
    33    15    17 1   
    34    17    18 2   
    35    17    19 1   
    36    19    20 1   
    37    19    43 1   
    38    20    21 ar  
    39    20    27 ar  
    40    21    22 ar  
    41    21    44 1   
    42    22    23 1   
    43    22    24 ar  
    44    24    25 1   
    45    24    26 ar  
    46    26    27 ar  
    47    26    45 1   
    48    27    46 1   
    49    28    47 1   
    50    28    48 1   
@<TRIPOS>SUBSTRUCTURE
     1 1C1         1 TEMP              0 ****  ****    0 ROOT
