@<TRIPOS>MOLECULE
1C2
   48    49     1     0     0
SMALL
No Charge or Current Charge


@<TRIPOS>ATOM
      1 O6          -8.9030    46.3020    46.8090 o          1 1C2      -0.694533
      2 S1          -8.8180    47.7550    46.9650 s6         1 1C2       1.360700
      3 O4          -7.6870    48.2590    47.7470 o          1 1C2      -0.694533
      4 O5          -9.2030    48.5480    45.7990 o          1 1C2      -0.694533
      5 N3         -10.0840    48.0810    47.9450 nu         1 1C2      -0.883100
      6 C15        -10.6040    47.2440    48.9170 ca         1 1C2       0.359000
      7 C16         -9.7790    46.5800    49.8440 ca         1 1C2      -0.143000
      8 C14        -11.9980    47.0930    49.0050 ca         1 1C2      -0.183000
      9 C13        -12.5750    46.2710    49.9930 ca         1 1C2      -0.090300
     10 C12        -14.1060    46.1060    50.0400 c6         1 1C2       0.164300
     11 N2         -14.6640    45.4270    51.2490 n          1 1C2      -0.414800
     12 C7         -16.0310    45.1120    51.3560 c          1 1C2       0.643100
     13 O3         -16.5200    44.6040    52.3530 o          1 1C2      -0.551000
     14 O2         -16.7060    45.4180    50.1980 os         1 1C2      -0.470100
     15 C8         -18.1250    45.1900    50.0310 c3         1 1C2       0.224000
     16 C11        -18.4230    45.6890    48.6000 c3         1 1C2      -0.107433
     17 C10        -18.9150    46.0380    51.0610 c3         1 1C2      -0.107433
     18 C9         -18.4260    43.6720    50.1330 c3         1 1C2      -0.107433
     19 C4         -13.7410    45.3070    52.4220 c6         1 1C2       0.046700
     20 C5         -13.6680    46.6090    53.2870 c          1 1C2       0.604100
     21 O1         -14.6710    47.2560    53.5670 o          1 1C2      -0.629100
     22 N1         -12.4300    46.9920    53.7640 ns         1 1C2      -0.484900
     23 C6         -12.1910    48.1760    54.5900 c3         1 1C2       0.099300
     24 C3         -12.3680    44.7310    51.9840 c6         1 1C2      -0.021100
     25 C2         -11.7380    45.6030    50.9080 ca         1 1C2      -0.152300
     26 C1         -10.3420    45.7570    50.8330 ca         1 1C2      -0.062000
     27 HN3        -10.7440    48.4150    47.2650 hn         1 1C2       0.459000
     28 H16         -8.7020    46.7050    49.8000 ha         1 1C2       0.153000
     29 H14        -12.6400    47.6120    48.2990 ha         1 1C2       0.103000
     30 H121       -14.4060    45.5390    49.1480 h1         1 1C2       0.053700
     31 H122       -14.5670    47.1010    49.9580 h1         1 1C2       0.053700
     32 H111       -17.8380    45.1290    47.8620 hc         1 1C2       0.047922
     33 H112       -19.4850    45.5660    48.3560 hc         1 1C2       0.047922
     34 H113       -18.1730    46.7520    48.4980 hc         1 1C2       0.047922
     35 H101       -18.5510    47.0720    51.0750 hc         1 1C2       0.047922
     36 H102       -19.9810    46.0580    50.8020 hc         1 1C2       0.047922
     37 H103       -18.8370    45.6300    52.0750 hc         1 1C2       0.047922
     38 H91        -18.3610    43.3080    51.1640 hc         1 1C2       0.047922
     39 H92        -19.4420    43.4600    49.7790 hc         1 1C2       0.047922
     40 H93        -17.7260    43.0940    49.5170 hc         1 1C2       0.047922
     41 H4         -14.1600    44.5660    53.1170 h1         1 1C2       0.082700
     42 HN1        -11.6350    46.4340    53.4790 hn         1 1C2       0.330500
     43 H61        -12.7590    48.0950    55.5260 h1         1 1C2       0.035033
     44 H62        -11.1210    48.2510    54.8220 h1         1 1C2       0.035033
     45 H63        -12.5080    49.0760    54.0460 h1         1 1C2       0.035033
     46 H31        -12.5200    43.7230    51.5740 hc         1 1C2       0.057700
     47 H32        -11.6990    44.6010    52.8450 hc         1 1C2       0.057700
     48 H1          -9.6930    45.2460    51.5410 ha         1 1C2       0.105000
@<TRIPOS>BOND
     1     1     2 1   
     2     2     3 1   
     3     2     4 1   
     4     2     5 1   
     5     5     6 1   
     6     5    27 1   
     7     6     7 ar  
     8     6     8 ar  
     9     7    26 ar  
    10     7    28 1   
    11     8     9 ar  
    12     8    29 1   
    13     9    10 1   
    14     9    25 ar  
    15    10    11 1   
    16    10    30 1   
    17    10    31 1   
    18    11    12 1   
    19    11    19 1   
    20    12    13 2   
    21    12    14 1   
    22    14    15 1   
    23    15    16 1   
    24    15    17 1   
    25    15    18 1   
    26    16    32 1   
    27    16    33 1   
    28    16    34 1   
    29    17    35 1   
    30    17    36 1   
    31    17    37 1   
    32    18    38 1   
    33    18    39 1   
    34    18    40 1   
    35    19    20 1   
    36    19    24 1   
    37    19    41 1   
    38    20    21 2   
    39    20    22 1   
    40    22    23 1   
    41    22    42 1   
    42    23    43 1   
    43    23    44 1   
    44    23    45 1   
    45    24    25 1   
    46    24    46 1   
    47    24    47 1   
    48    25    26 ar  
    49    26    48 1   
@<TRIPOS>SUBSTRUCTURE
     1 1C2         1 TEMP              0 ****  ****    0 ROOT
