@<TRIPOS>MOLECULE
1C2
   48    49     1     0     0
SMALL
bcc


@<TRIPOS>ATOM
      1 O6          -8.2580    46.8870    47.2420 o          1 1C2      -0.694533
      2 S1          -8.6860    48.2470    47.5890 s6         1 1C2       1.360700
      3 O4          -7.9190    48.8300    48.6960 o          1 1C2      -0.694533
      4 O5          -8.8530    49.1380    46.4360 o          1 1C2      -0.694533
      5 N3         -10.2900    48.1420    48.1740 nu         1 1C2      -0.689500
      6 C15        -10.6870    47.1580    49.0780 ca         1 1C2       0.220600
      7 C16         -9.8680    46.7180    50.1200 ca         1 1C2      -0.161000
      8 C14        -11.9810    46.6360    48.9790 ca         1 1C2      -0.201000
      9 C13        -12.4350    45.6960    49.8870 ca         1 1C2      -0.090300
     10 C12        -13.8160    45.1120    49.8120 c6         1 1C2       0.164300
     11 N2         -14.4160    45.0590    51.1460 n          1 1C2      -0.481800
     12 C7         -15.7570    45.1510    51.3620 c          1 1C2       0.759100
     13 O3         -16.2420    45.0730    52.4740 o          1 1C2      -0.600000
     14 O2         -16.4310    45.3310    50.2350 os         1 1C2      -0.446900
     15 C8         -17.8660    45.5660    50.2020 c3         1 1C2       0.200800
     16 C11        -18.1480    45.7330    48.7140 c3         1 1C2      -0.107433
     17 C10        -18.2210    46.8510    50.9410 c3         1 1C2      -0.107433
     18 C9         -18.6290    44.3640    50.7440 c3         1 1C2      -0.107433
     19 C4         -13.6040    44.7030    52.2990 c6         1 1C2       0.046700
     20 C5         -13.4590    45.8380    53.3120 c          1 1C2       0.671100
     21 O1         -13.1770    45.5830    54.4760 o          1 1C2      -0.629100
     22 N1         -13.5930    47.0820    52.8510 ns         1 1C2      -0.551900
     23 C6         -13.4050    48.2410    53.6900 c3         1 1C2       0.099300
     24 C3         -12.2100    44.2470    51.8520 c6         1 1C2      -0.021100
     25 C2         -11.6120    45.2480    50.9150 ca         1 1C2      -0.152300
     26 C1         -10.3340    45.7730    51.0220 ca         1 1C2      -0.080000
     27 HN3        -10.9540    48.2910    47.4250 hn         1 1C2       0.403800
     28 H16         -8.8750    47.1240    50.2490 ha         1 1C2       0.171000
     29 H14        -12.6360    46.9790    48.1850 ha         1 1C2       0.121000
     30 H121       -13.7710    44.1060    49.3790 h1         1 1C2       0.053700
     31 H122       -14.4390    45.7160    49.1580 h1         1 1C2       0.053700
     32 H111       -17.9070    44.8250    48.1590 hc         1 1C2       0.047922
     33 H112       -19.2040    45.9510    48.5610 hc         1 1C2       0.047922
     34 H113       -17.5710    46.5580    48.2940 hc         1 1C2       0.047922
     35 H101       -17.6580    47.6970    50.5430 hc         1 1C2       0.047922
     36 H102       -19.2810    47.0630    50.7950 hc         1 1C2       0.047922
     37 H103       -18.0410    46.7820    52.0110 hc         1 1C2       0.047922
     38 H91        -18.5290    44.2560    51.8210 hc         1 1C2       0.047922
     39 H92        -19.6890    44.4810    50.5170 hc         1 1C2       0.047922
     40 H93        -18.2920    43.4410    50.2670 hc         1 1C2       0.047922
     41 H4         -14.0730    43.8760    52.8370 h1         1 1C2       0.082700
     42 HN1        -13.8000    47.2260    51.8770 hn         1 1C2       0.330500
     43 H61        -12.4180    48.2440    54.1540 h1         1 1C2       0.035033
     44 H62        -13.4960    49.1310    53.0740 h1         1 1C2       0.035033
     45 H63        -14.1540    48.2930    54.4810 h1         1 1C2       0.035033
     46 H31        -12.3080    43.2730    51.3610 hc         1 1C2       0.057700
     47 H32        -11.5870    44.0860    52.7310 hc         1 1C2       0.057700
     48 H1          -9.6840    45.4470    51.8250 ha         1 1C2       0.123000
@<TRIPOS>BOND
     1     1     2 1   
     2     2     3 1   
     3     2     4 1   
     4     2     5 1   
     5     5     6 1   
     6     5    27 1   
     7     6     7 ar  
     8     6     8 ar  
     9     7    26 ar  
    10     7    28 1   
    11     8     9 ar  
    12     8    29 1   
    13     9    10 1   
    14     9    25 ar  
    15    10    11 1   
    16    10    30 1   
    17    10    31 1   
    18    11    12 1   
    19    11    19 1   
    20    12    13 2   
    21    12    14 1   
    22    14    15 1   
    23    15    16 1   
    24    15    17 1   
    25    15    18 1   
    26    16    32 1   
    27    16    33 1   
    28    16    34 1   
    29    17    35 1   
    30    17    36 1   
    31    17    37 1   
    32    18    38 1   
    33    18    39 1   
    34    18    40 1   
    35    19    20 1   
    36    19    24 1   
    37    19    41 1   
    38    20    21 2   
    39    20    22 1   
    40    22    23 1   
    41    22    42 1   
    42    23    43 1   
    43    23    44 1   
    44    23    45 1   
    45    24    25 1   
    46    24    46 1   
    47    24    47 1   
    48    25    26 ar  
    49    26    48 1   
@<TRIPOS>SUBSTRUCTURE
     1 1C2         1 TEMP              0 ****  ****    0 ROOT
