@<TRIPOS>MOLECULE
1C5
   77    78     1     0     0
SMALL
bcc


@<TRIPOS>ATOM
      1 C1          -0.3910     2.1300     9.8320 c6         1 1C5      -0.076400
      2 C2           0.6380     2.1870     8.7080 c6         1 1C5      -0.069900
      3 C3          -0.0060     1.9050     7.3540 c6         1 1C5      -0.077900
      4 C4          -0.7380     0.5620     7.3430 c6         1 1C5      -0.056700
      5 C5          -1.7640     0.5110     8.4750 c6         1 1C5      -0.077900
      6 C6          -1.1270     0.7930     9.8320 c6         1 1C5      -0.069900
      7 C7          -1.3550     0.2890     5.9730 c3         1 1C5      -0.080400
      8 C8          -1.8450    -1.1440     5.7960 c3         1 1C5      -0.081400
      9 C9          -2.1480    -1.4860     4.3340 c3         1 1C5       0.023700
     10 C10         -2.8670    -2.8320     4.2250 c          1 1C5       0.664100
     11 C12          0.6420    -0.4420     1.9990 c3         1 1C5       0.027700
     12 C13          1.2290     0.6890     2.8600 c3         1 1C5      -0.066400
     13 C14          2.6570     1.0580     2.5020 c3         1 1C5      -0.208400
     14 C15          3.3070     2.0810     3.4560 c          1 1C5       0.929600
     15 C17          1.4380    -0.1630    -1.7100 c3         1 1C5       0.045700
     16 C18         -0.0100    -0.1900    -2.2520 c3         1 1C5      -0.009100
     17 C19         -0.0740     0.2150    -3.6970 ca         1 1C5      -0.210300
     18 C20         -0.1880    -0.7290    -4.7140 ca         1 1C5      -0.110000
     19 C21         -0.2060    -0.3560    -6.0500 ca         1 1C5      -0.209000
     20 C22         -0.0930     0.9870    -6.4160 ca         1 1C5       0.297100
     21 C23         -0.0010     1.9400    -5.3990 ca         1 1C5      -0.209000
     22 C24          0.0160     1.5550    -4.0670 ca         1 1C5      -0.110000
     23 C26          3.3660    -2.6060    -3.8600 c3         1 1C5      -0.177100
     24 N1          -2.3200    -3.7360     3.4090 nt         1 1C5      -0.659000
     25 N2          -0.9360    -1.4120     3.5500 ns         1 1C5      -0.590900
     26 N3           0.6660    -0.1520     0.5880 ns         1 1C5      -0.561900
     27 N4           2.3770    -0.8320    -2.5660 ns         1 1C5      -0.533900
     28 O1          -3.8950    -3.0260     4.8600 o          1 1C5      -0.644100
     29 O3           2.7300     2.3240     4.5350 o          1 1C5      -0.854800
     30 O4           4.3860     2.5740     3.0670 o          1 1C5      -0.854800
     31 O6           1.4600    -2.8910    -2.4430 o          1 1C5      -0.625100
     32 O4P         -0.0360     1.3640    -7.6990 os         1 1C5      -0.443500
     33 O1P         -2.4090     2.3410    -7.8460 o          1 1C5      -0.902833
     34 O2P         -0.9580     1.9710    -9.9420 o          1 1C5      -0.902833
     35 O3P         -1.9710    -0.0360    -8.6960 o          1 1C5      -0.902833
     36 P           -1.5100     1.4110    -8.6430 p5         1 1C5       1.258900
     37 H11          0.0900     2.2980    10.8000 hc         1 1C5       0.024700
     38 H12A        -1.1160     2.9400     9.6980 hc         1 1C5       0.024700
     39 H21A         1.4200     1.4420     8.8960 hc         1 1C5       0.032450
     40 H22          1.1340     3.1610     8.6950 hc         1 1C5       0.032450
     41 H31          0.7490     1.9250     6.5620 hc         1 1C5       0.050200
     42 H32         -0.7240     2.7030     7.1250 hc         1 1C5       0.050200
     43 H4           0.0090    -0.2220     7.5300 hc         1 1C5       0.040700
     44 H51         -2.5410     1.2600     8.2780 hc         1 1C5       0.050200
     45 H52         -2.2670    -0.4600     8.4950 hc         1 1C5       0.050200
     46 H61         -0.4180    -0.0070    10.0720 hc         1 1C5       0.032450
     47 H62         -1.8890     0.7780    10.6160 hc         1 1C5       0.032450
     48 H71         -0.6000     0.5130     5.2160 hc         1 1C5       0.057700
     49 H72         -2.1790     0.9890     5.7940 hc         1 1C5       0.057700
     50 H81         -2.7400    -1.3200     6.3920 hc         1 1C5       0.045200
     51 H82         -1.0830    -1.8410     6.1680 hc         1 1C5       0.045200
     52 H9          -2.8460    -0.7460     3.9340 h1         1 1C5       0.105700
     53 H12          1.2260    -1.3500     2.1620 h1         1 1C5       0.077700
     54 H131         0.5820     1.5670     2.7840 hc         1 1C5       0.043200
     55 H132         1.1950     0.3750     3.9040 hc         1 1C5       0.043200
     56 H141         3.2820     0.1580     2.4990 hc         1 1C5       0.034700
     57 H142         2.7070     1.4510     1.4840 hc         1 1C5       0.034700
     58 H17          1.7550     0.8840    -1.6890 h1         1 1C5       0.065700
     59 H181        -0.4370    -1.1820    -2.1130 hc         1 1C5       0.044700
     60 H182        -0.6190     0.5020    -1.6660 hc         1 1C5       0.044700
     61 H20         -0.2660    -1.7790    -4.4590 ha         1 1C5       0.090500
     62 H21         -0.2950    -1.1080    -6.8220 ha         1 1C5       0.140000
     63 H23          0.0700     2.9890    -5.6600 ha         1 1C5       0.140000
     64 H24          0.0890     2.3180    -3.2980 ha         1 1C5       0.090500
     65 H261         3.7720    -3.5620    -3.5340 hc         1 1C5       0.049367
     66 H262         2.8970    -2.7640    -4.8320 hc         1 1C5       0.049367
     67 H263         4.1860    -1.9030    -3.9920 hc         1 1C5       0.049367
     68 HN11        -2.7490    -4.6390     3.2930 hn         1 1C5       0.318500
     69 HN12        -1.4670    -3.5540     2.9090 hn         1 1C5       0.318500
     70 HN2         -0.0960    -1.7670     3.9830 hn         1 1C5       0.314500
     71 HN3         -0.0080     0.5180     0.2540 hn         1 1C5       0.334500
     72 HN4          3.1040    -0.2720    -2.9770 hn         1 1C5       0.316500
     73 C11         -0.8020    -0.6660     2.4340 c          1 1C5       0.654100
     74 C16          1.5670    -0.6690    -0.2660 c          1 1C5       0.668100
     75 O2          -1.7400    -0.1540     1.8480 o          1 1C5      -0.593100
     76 C25          2.3170    -2.1360    -2.8820 c          1 1C5       0.689100
     77 O5           2.4450    -1.4420     0.0750 o          1 1C5      -0.618100
@<TRIPOS>BOND
     1     1     2 1   
     2     1     6 1   
     3     1    37 1   
     4     1    38 1   
     5     2     3 1   
     6     2    39 1   
     7     2    40 1   
     8     3     4 1   
     9     3    41 1   
    10     3    42 1   
    11     4     5 1   
    12     4     7 1   
    13     4    43 1   
    14     5     6 1   
    15     5    44 1   
    16     5    45 1   
    17     6    46 1   
    18     6    47 1   
    19     7     8 1   
    20     7    48 1   
    21     7    49 1   
    22     8     9 1   
    23     8    50 1   
    24     8    51 1   
    25     9    10 1   
    26     9    25 1   
    27     9    52 1   
    28    10    24 1   
    29    10    28 2   
    30    11    12 1   
    31    11    26 1   
    32    11    53 1   
    33    11    73 1   
    34    12    13 1   
    35    12    54 1   
    36    12    55 1   
    37    13    14 1   
    38    13    56 1   
    39    13    57 1   
    40    14    29 1   
    41    14    30 1   
    42    15    16 1   
    43    15    27 1   
    44    15    58 1   
    45    15    74 1   
    46    16    17 1   
    47    16    59 1   
    48    16    60 1   
    49    17    18 ar  
    50    17    22 ar  
    51    18    19 ar  
    52    18    61 1   
    53    19    20 ar  
    54    19    62 1   
    55    20    21 ar  
    56    20    32 1   
    57    21    22 ar  
    58    21    63 1   
    59    22    64 1   
    60    23    65 1   
    61    23    66 1   
    62    23    67 1   
    63    23    76 1   
    64    24    68 1   
    65    24    69 1   
    66    25    70 1   
    67    25    73 1   
    68    26    71 1   
    69    26    74 1   
    70    27    72 1   
    71    27    76 1   
    72    31    76 2   
    73    32    36 1   
    74    33    36 1   
    75    34    36 1   
    76    35    36 1   
    77    73    75 2   
    78    74    77 2   
@<TRIPOS>SUBSTRUCTURE
     1 1C5         1 TEMP              0 ****  ****    0 ROOT
