@<TRIPOS>MOLECULE
1C5
   77    78     1     0     0
SMALL
No Charge or Current Charge


@<TRIPOS>ATOM
      1 C1          -1.8560     3.4250     8.6450 c6         1 1C5      -0.076400
      2 C2          -0.5590     3.4270     7.8040 c6         1 1C5      -0.069900
      3 C3          -0.6820     2.4800     6.5840 c6         1 1C5      -0.077900
      4 C4          -1.0480     1.0300     7.0130 c6         1 1C5      -0.056700
      5 C5          -2.3490     1.0370     7.8720 c6         1 1C5      -0.077900
      6 C6          -2.2270     1.9900     9.0880 c6         1 1C5      -0.069900
      7 C7          -1.1500     0.1000     5.7650 c3         1 1C5      -0.080400
      8 C8          -1.3280    -1.4120     6.0660 c3         1 1C5      -0.081400
      9 C9          -1.4080    -2.3160     4.8040 c3         1 1C5       0.023700
     10 C10         -1.6850    -3.8170     5.1360 c          1 1C5       0.597100
     11 C12          1.2630    -1.2790     2.1490 c3         1 1C5       0.027700
     12 C13          2.2430    -0.4610     3.0360 c3         1 1C5      -0.066400
     13 C14          3.6990    -0.3920     2.5060 c3         1 1C5      -0.208400
     14 C15          4.6040     0.3300     3.5170 c          1 1C5       0.719000
     15 C17          1.5550    -0.3290    -1.6420 c3         1 1C5       0.045700
     16 C18          0.0510     0.0090    -1.8660 c3         1 1C5      -0.009100
     17 C19         -0.2080     0.7250    -3.1900 ca         1 1C5      -0.210300
     18 C20         -0.8980     0.0730    -4.2310 ca         1 1C5      -0.092000
     19 C21         -1.1290     0.7320    -5.4510 ca         1 1C5      -0.191000
     20 C22         -0.6740     2.0550    -5.6430 ca         1 1C5       0.297100
     21 C23          0.0120     2.7000    -4.6000 ca         1 1C5      -0.191000
     22 C24          0.2450     2.0430    -3.3800 ca         1 1C5      -0.092000
     23 C26          2.5730    -2.5420    -4.6500 c3         1 1C5      -0.177100
     24 N1          -1.3400    -4.7160     4.1860 nt         1 1C5      -0.592000
     25 N2          -0.2100    -2.1670     3.9360 ns         1 1C5      -0.523900
     26 N3           1.1490    -0.6980     0.7900 ns         1 1C5      -0.494900
     27 N4           2.1870    -0.9680    -2.8240 ns         1 1C5      -0.466900
     28 O1          -2.1490    -4.2140     6.1940 o          1 1C5      -0.644100
     29 O3           5.1400    -0.3350     4.3900 o          1 1C5      -0.749500
     30 O4           4.7080     1.5440     3.4340 o          1 1C5      -0.749500
     31 O6           0.8930    -2.8550    -2.9510 o          1 1C5      -0.625100
     32 O4P         -0.8660     2.7580    -6.8060 os         1 1C5      -0.443500
     33 O1P         -3.0410     1.9500    -7.8520 o          1 1C5      -0.902833
     34 O2P         -1.5810     3.3960    -9.1420 o          1 1C5      -0.902833
     35 O3P         -0.9360     1.0940    -8.7300 o          1 1C5      -0.902833
     36 P           -1.6200     2.2840    -8.1510 p5         1 1C5       1.258900
     37 H11         -1.7300     4.0670     9.5280 hc         1 1C5       0.024700
     38 H12A        -2.6790     3.8570     8.0590 hc         1 1C5       0.024700
     39 H21A         0.2900     3.1160     8.4290 hc         1 1C5       0.032450
     40 H22         -0.3380     4.4470     7.4620 hc         1 1C5       0.032450
     41 H31          0.2650     2.4800     6.0280 hc         1 1C5       0.050200
     42 H32         -1.4450     2.8690     5.8950 hc         1 1C5       0.050200
     43 H4          -0.2260     0.6360     7.6280 hc         1 1C5       0.040700
     44 H51         -3.2040     1.3400     7.2510 hc         1 1C5       0.050200
     45 H52         -2.5720     0.0280     8.2400 hc         1 1C5       0.050200
     46 H61         -1.4650     1.6080     9.7810 hc         1 1C5       0.032450
     47 H62         -3.1740     2.0050     9.6440 hc         1 1C5       0.032450
     48 H71         -0.2400     0.2260     5.1670 hc         1 1C5       0.057700
     49 H72         -1.9790     0.4300     5.1250 hc         1 1C5       0.057700
     50 H81         -2.2460    -1.5550     6.6460 hc         1 1C5       0.045200
     51 H82         -0.4970    -1.7510     6.6970 hc         1 1C5       0.045200
     52 H9          -2.2870    -2.0000     4.2270 h1         1 1C5       0.105700
     53 H12          1.6360    -2.3080     2.0680 h1         1 1C5       0.077700
     54 H131         1.8540     0.5590     3.1540 hc         1 1C5       0.043200
     55 H132         2.2620    -0.9010     4.0410 hc         1 1C5       0.043200
     56 H141         4.0250    -1.4320     2.3830 hc         1 1C5       0.034700
     57 H142         3.6600     0.1740     1.5680 hc         1 1C5       0.034700
     58 H17          2.0670     0.6320    -1.5030 h1         1 1C5       0.065700
     59 H181        -0.5400    -0.9130    -1.8060 hc         1 1C5       0.044700
     60 H182        -0.3050     0.6440    -1.0460 hc         1 1C5       0.044700
     61 H20         -1.2520    -0.9460    -4.0990 ha         1 1C5       0.072500
     62 H21         -1.6620     0.2060    -6.2360 ha         1 1C5       0.122000
     63 H23          0.3650     3.7180    -4.7410 ha         1 1C5       0.122000
     64 H24          0.7780     2.5590    -2.5850 ha         1 1C5       0.072500
     65 H261         2.2430    -3.4940    -5.0800 hc         1 1C5       0.049367
     66 H262         2.5040    -1.7250    -5.3790 hc         1 1C5       0.049367
     67 H263         3.6440    -2.5530    -4.4150 hc         1 1C5       0.049367
     68 HN11        -1.4850    -5.6990     4.3580 hn         1 1C5       0.318500
     69 HN12        -0.9470    -4.3950     3.3140 hn         1 1C5       0.318500
     70 HN2          0.6550    -2.6070     4.2320 hn         1 1C5       0.314500
     71 HN3          0.4920     0.0630     0.6580 hn         1 1C5       0.334500
     72 HN4          2.9450    -0.4800    -3.2840 hn         1 1C5       0.316500
     73 C11         -0.1430    -1.3700     2.8090 c          1 1C5       0.587100
     74 C16          1.8420    -1.1250    -0.3260 c          1 1C5       0.601100
     75 O2          -1.1280    -0.7880     2.3710 o          1 1C5      -0.593100
     76 C25          1.7910    -2.1570    -3.4000 c          1 1C5       0.622100
     77 O5           2.6300    -2.0630    -0.2650 o          1 1C5      -0.618100
@<TRIPOS>BOND
     1     1     2 1   
     2     1     6 1   
     3     1    37 1   
     4     1    38 1   
     5     2     3 1   
     6     2    39 1   
     7     2    40 1   
     8     3     4 1   
     9     3    41 1   
    10     3    42 1   
    11     4     5 1   
    12     4     7 1   
    13     4    43 1   
    14     5     6 1   
    15     5    44 1   
    16     5    45 1   
    17     6    46 1   
    18     6    47 1   
    19     7     8 1   
    20     7    48 1   
    21     7    49 1   
    22     8     9 1   
    23     8    50 1   
    24     8    51 1   
    25     9    10 1   
    26     9    25 1   
    27     9    52 1   
    28    10    24 1   
    29    10    28 2   
    30    11    12 1   
    31    11    26 1   
    32    11    53 1   
    33    11    73 1   
    34    12    13 1   
    35    12    54 1   
    36    12    55 1   
    37    13    14 1   
    38    13    56 1   
    39    13    57 1   
    40    14    29 1   
    41    14    30 1   
    42    15    16 1   
    43    15    27 1   
    44    15    58 1   
    45    15    74 1   
    46    16    17 1   
    47    16    59 1   
    48    16    60 1   
    49    17    18 ar  
    50    17    22 ar  
    51    18    19 ar  
    52    18    61 1   
    53    19    20 ar  
    54    19    62 1   
    55    20    21 ar  
    56    20    32 1   
    57    21    22 ar  
    58    21    63 1   
    59    22    64 1   
    60    23    65 1   
    61    23    66 1   
    62    23    67 1   
    63    23    76 1   
    64    24    68 1   
    65    24    69 1   
    66    25    70 1   
    67    25    73 1   
    68    26    71 1   
    69    26    74 1   
    70    27    72 1   
    71    27    76 1   
    72    31    76 2   
    73    32    36 1   
    74    33    36 1   
    75    34    36 1   
    76    35    36 1   
    77    73    75 2   
    78    74    77 2   
@<TRIPOS>SUBSTRUCTURE
     1 1C5         1 TEMP              0 ****  ****    0 ROOT
