@<TRIPOS>MOLECULE
1C6
   42    44     1     0     0
SMALL
No Charge or Current Charge


@<TRIPOS>ATOM
      1 S           -0.2580     0.7410    -0.8040 ss         1 1C6      -0.241200
      2 CB          -1.2000     0.1680     0.6880 c3         1 1C6       0.020300
      3 CG          -2.7060     0.3490     0.5170 ca         1 1C6       0.342300
      4 CD1         -3.5150    -0.6130    -0.1400 ca         1 1C6      -0.120300
      5 C3          -2.9070    -1.8860    -0.7410 c3         1 1C6      -0.051800
      6 CE1         -4.9020    -0.3570    -0.2240 ca         1 1C6       0.129100
      7 O2          -5.7530    -1.2530    -0.8270 os         1 1C6      -0.362100
      8 C2          -6.2120    -2.3920    -0.0820 c3         1 1C6       0.150900
      9 CZ          -5.4210     0.8360     0.3120 ca         1 1C6      -0.129300
     10 C1          -6.9090     1.1620     0.2300 c3         1 1C6      -0.036800
     11 CE2         -4.5310     1.7240     0.9360 ca         1 1C6       0.339900
     12 N1          -3.2060     1.4900     1.0450 nb         1 1C6      -0.655000
     13 CF1          1.4020     0.4000    -0.3470 cc         1 1C6       0.429700
     14 NV           2.4500     0.6910    -1.2010 na         1 1C6      -0.308600
     15 CX2          3.5730     0.2960    -0.5410 ca         1 1C6      -0.035200
     16 CS2          3.1700    -0.2120     0.6680 ca         1 1C6       0.042400
     17 NE1          1.7830    -0.1570     0.8130 nd         1 1C6      -0.586100
     18 CE3          4.9150     0.3550    -0.9320 ca         1 1C6      -0.163000
     19 CZ3          5.8850    -0.1340    -0.0340 ca         1 1C6       0.155100
     20 O3           7.2070    -0.0740    -0.4240 os         1 1C6      -0.345100
     21 C4           8.2760    -0.5450     0.4160 c3         1 1C6       0.150900
     22 CH2          5.4830    -0.6640     1.2230 ca         1 1C6      -0.210000
     23 CZ2          4.1150    -0.7050     1.5800 ca         1 1C6      -0.015000
     24 H1          -0.9710    -0.8870     0.8800 h1         1 1C6       0.096200
     25 H2          -0.8600     0.7410     1.5590 h1         1 1C6       0.096200
     26 H3          -2.7150    -2.6330     0.0380 hc         1 1C6       0.053367
     27 H4          -3.5630    -2.3480    -1.4870 hc         1 1C6       0.053367
     28 H5          -1.9600    -1.6830    -1.2520 hc         1 1C6       0.053367
     29 H6          -6.7650    -2.0730     0.8110 h1         1 1C6       0.038700
     30 H7          -6.8800    -3.0080    -0.6970 h1         1 1C6       0.038700
     31 H8          -5.3690    -3.0170     0.2390 h1         1 1C6       0.038700
     32 H9          -7.4980     0.4610     0.8340 hc         1 1C6       0.047700
     33 H10         -7.1240     2.1740     0.5950 hc         1 1C6       0.047700
     34 H11         -7.2700     1.1010    -0.8030 hc         1 1C6       0.047700
     35 H12         -4.8890     2.6570     1.3710 h4         1 1C6       0.022100
     36 H13          2.3800     1.1080    -2.1190 hn         1 1C6       0.366000
     37 H15          5.2040     0.7630    -1.8970 ha         1 1C6       0.132000
     38 H16          9.2420    -0.4050    -0.0840 h1         1 1C6       0.040033
     39 H17          8.3000     0.0080     1.3640 h1         1 1C6       0.040033
     40 H18          8.1580    -1.6140     0.6340 h1         1 1C6       0.040033
     41 H19          6.2110    -1.0460     1.9310 ha         1 1C6       0.118000
     42 H20          3.7990    -1.1080     2.5390 ha         1 1C6       0.127000
@<TRIPOS>BOND
     1     1     2 1   
     2     1    13 1   
     3     2     3 1   
     4     2    24 1   
     5     2    25 1   
     6     3     4 ar  
     7     3    12 ar  
     8     4     5 1   
     9     4     6 ar  
    10     5    26 1   
    11     5    27 1   
    12     5    28 1   
    13     6     7 1   
    14     6     9 ar  
    15     7     8 1   
    16     8    29 1   
    17     8    30 1   
    18     8    31 1   
    19     9    10 1   
    20     9    11 ar  
    21    10    32 1   
    22    10    33 1   
    23    10    34 1   
    24    11    12 ar  
    25    11    35 1   
    26    13    14 1   
    27    13    17 2   
    28    14    15 1   
    29    14    36 1   
    30    15    16 ar  
    31    15    18 ar  
    32    16    17 1   
    33    16    23 ar  
    34    18    19 ar  
    35    18    37 1   
    36    19    20 1   
    37    19    22 ar  
    38    20    21 1   
    39    21    38 1   
    40    21    39 1   
    41    21    40 1   
    42    22    23 ar  
    43    22    41 1   
    44    23    42 1   
@<TRIPOS>SUBSTRUCTURE
     1 1C6         1 TEMP              0 ****  ****    0 ROOT
