@<TRIPOS>MOLECULE
1C6
   42    44     1     0     0
SMALL
abcg2


@<TRIPOS>ATOM
      1 S           -0.3340     0.8490    -0.6750 ss         1 1C6      -0.241200
      2 CB          -1.1970     0.2040     0.7970 c3         1 1C6       0.020300
      3 CG          -2.6710     0.3780     0.5690 ca         1 1C6       0.342300
      4 CD1         -3.4180    -0.6110    -0.0790 ca         1 1C6      -0.120300
      5 C3          -2.7780    -1.8600    -0.6110 c3         1 1C6      -0.051800
      6 CE1         -4.7850    -0.3720    -0.2190 ca         1 1C6       0.129100
      7 O2          -5.5870    -1.2780    -0.8330 os         1 1C6      -0.362100
      8 C2          -5.9920    -2.3650    -0.0060 c3         1 1C6       0.150900
      9 CZ          -5.3520     0.8180     0.2350 ca         1 1C6      -0.129300
     10 C1          -6.8110     1.1130     0.0680 c3         1 1C6      -0.036800
     11 CE2         -4.4910     1.7240     0.8370 ca         1 1C6       0.339900
     12 N1          -3.1950     1.5150     1.0100 nb         1 1C6      -0.655000
     13 CF1          1.3090     0.4450    -0.2640 cc         1 1C6       0.429700
     14 NV           2.3280     0.7930    -1.0990 na         1 1C6      -0.308600
     15 CX2          3.4880     0.3490    -0.5180 ca         1 1C6      -0.035200
     16 CS2          3.0760    -0.2620     0.6770 ca         1 1C6       0.042400
     17 NE1          1.7030    -0.1830     0.8030 nd         1 1C6      -0.586100
     18 CE3          4.8130     0.4220    -0.9140 ca         1 1C6      -0.163000
     19 CZ3          5.7550    -0.1470    -0.0600 ca         1 1C6       0.155100
     20 O3           7.0400    -0.0630    -0.4710 os         1 1C6      -0.345100
     21 C4           8.0540    -0.5980     0.3530 c3         1 1C6       0.150900
     22 CH2          5.3650    -0.7620     1.1410 ca         1 1C6      -0.210000
     23 CZ2          4.0300    -0.8230     1.5140 ca         1 1C6      -0.015000
     24 H1          -0.9170    -0.8380     0.9380 h1         1 1C6       0.096200
     25 H2          -0.8810     0.7770     1.6660 h1         1 1C6       0.096200
     26 H3          -2.6130    -2.5940     0.1810 hc         1 1C6       0.053367
     27 H4          -3.3950    -2.3300    -1.3730 hc         1 1C6       0.053367
     28 H5          -1.8090    -1.6450    -1.0610 hc         1 1C6       0.053367
     29 H6          -6.5550    -2.0160     0.8630 h1         1 1C6       0.038700
     30 H7          -6.6330    -3.0040    -0.6090 h1         1 1C6       0.038700
     31 H8          -5.1380    -2.9500     0.3430 h1         1 1C6       0.038700
     32 H9          -7.4370     0.3740     0.5710 hc         1 1C6       0.047700
     33 H10         -7.0540     2.0880     0.4850 hc         1 1C6       0.047700
     34 H11         -7.0990     1.1170    -0.9840 hc         1 1C6       0.047700
     35 H12         -4.8800     2.6680     1.2060 h4         1 1C6       0.022100
     36 H13          2.2460     1.2900    -1.9720 hn         1 1C6       0.366000
     37 H15          5.1150     0.8950    -1.8390 ha         1 1C6       0.132000
     38 H16          8.9960    -0.4130    -0.1570 h1         1 1C6       0.040033
     39 H17          8.0840    -0.1140     1.3330 h1         1 1C6       0.040033
     40 H18          7.9400    -1.6760     0.4980 h1         1 1C6       0.040033
     41 H19          6.1030    -1.2020     1.7980 ha         1 1C6       0.118000
     42 H20          3.7450    -1.3010     2.4420 ha         1 1C6       0.127000
@<TRIPOS>BOND
     1     1     2 1   
     2     1    13 1   
     3     2     3 1   
     4     2    24 1   
     5     2    25 1   
     6     3     4 ar  
     7     3    12 ar  
     8     4     5 1   
     9     4     6 ar  
    10     5    26 1   
    11     5    27 1   
    12     5    28 1   
    13     6     7 1   
    14     6     9 ar  
    15     7     8 1   
    16     8    29 1   
    17     8    30 1   
    18     8    31 1   
    19     9    10 1   
    20     9    11 ar  
    21    10    32 1   
    22    10    33 1   
    23    10    34 1   
    24    11    12 ar  
    25    11    35 1   
    26    13    14 1   
    27    13    17 2   
    28    14    15 1   
    29    14    36 1   
    30    15    16 ar  
    31    15    18 ar  
    32    16    17 1   
    33    16    23 ar  
    34    18    19 ar  
    35    18    37 1   
    36    19    20 1   
    37    19    22 ar  
    38    20    21 1   
    39    21    38 1   
    40    21    39 1   
    41    21    40 1   
    42    22    23 ar  
    43    22    41 1   
    44    23    42 1   
@<TRIPOS>SUBSTRUCTURE
     1 1C6         1 TEMP              0 ****  ****    0 ROOT
