@<TRIPOS>MOLECULE
1C7
   56    60     1     0     0
SMALL
abcg2


@<TRIPOS>ATOM
      1 O18          3.8740    -3.0130     0.4990 o          1 1C7      -0.527000
      2 C8           3.0210    -2.2330     0.1230 c          1 1C7       0.571000
      3 N7           1.7030    -2.5610     0.0360 n          1 1C7      -0.197400
      4 C19          1.2510    -3.9080     0.3330 c3         1 1C7       0.080300
      5 C2           0.7610    -1.6010    -0.3240 ca         1 1C7      -0.188000
      6 C9           3.3820    -0.8350    -0.3460 c6         1 1C7       0.145500
      7 C16          3.6320    -0.8090    -1.8630 c3         1 1C7      -0.098400
      8 C17          4.8070    -1.6650    -2.3120 c3         1 1C7      -0.090100
      9 N10          2.3620     0.1230     0.0600 nh         1 1C7      -0.757300
     10 C11          2.6970     1.5460     0.1840 c5         1 1C7       0.233500
     11 C15          1.9270     2.2600     1.3210 c5         1 1C7      -0.086400
     12 C14          2.9480     3.1870     2.0060 c5         1 1C7      -0.080900
     13 C13          4.1370     3.2330     1.0480 c5         1 1C7      -0.080900
     14 C12          4.1710     1.8130     0.4970 c5         1 1C7      -0.086400
     15 C3           1.0960    -0.2260    -0.2460 ca         1 1C7       0.364900
     16 N4           0.1710     0.6990    -0.4440 nb         1 1C7      -0.248000
     17 C5          -1.0400     0.2840    -0.7640 ca         1 1C7       0.238500
     18 N6          -1.4420    -0.9470    -0.9400 nb         1 1C7      -0.176000
     19 C1          -0.5300    -1.8950    -0.6930 ca         1 1C7       0.103900
     20 N20         -1.9860     1.3090    -0.9720 na         1 1C7      -0.174000
     21 C24         -1.7010     2.4940    -1.6090 cc         1 1C7      -0.196000
     22 C23         -2.8970     3.1220    -1.7570 cd         1 1C7       0.231900
     23 N22         -3.8990     2.3690    -1.2140 nd         1 1C7      -0.665000
     24 C21         -3.3350     1.2860    -0.7460 cc         1 1C7       0.495000
     25 C25         -4.0570     0.2550     0.0070 ca         1 1C7      -0.109500
     26 C30         -3.5540    -0.2720     1.1960 ca         1 1C7      -0.077000
     27 C29         -4.2880    -1.2020     1.9140 ca         1 1C7      -0.117500
     28 C28         -5.5340    -1.6150     1.4580 ca         1 1C7      -0.102000
     29 C27         -6.0460    -1.0830     0.2830 ca         1 1C7      -0.117500
     30 C26         -5.3140    -0.1500    -0.4370 ca         1 1C7      -0.077000
     31 H1           0.9410    -4.4260    -0.5750 h1         1 1C7       0.054033
     32 H2           2.0590    -4.4660     0.7910 h1         1 1C7       0.054033
     33 H3           0.4090    -3.8740     1.0240 h1         1 1C7       0.054033
     34 H4           4.3080    -0.5860     0.1690 h1         1 1C7       0.101700
     35 H5           2.7220    -1.1100    -2.3910 hc         1 1C7       0.052200
     36 H6           3.8190     0.2310    -2.1430 hc         1 1C7       0.052200
     37 H7           4.9690    -1.5430    -3.3820 hc         1 1C7       0.043700
     38 H8           5.7260    -1.3710    -1.8020 hc         1 1C7       0.043700
     39 H9           4.6460    -2.7260    -2.1240 hc         1 1C7       0.043700
     40 H10          2.4580     2.0400    -0.7640 h1         1 1C7       0.053700
     41 H11          1.0860     2.8180     0.9130 hc         1 1C7       0.056700
     42 H12          1.5110     1.5360     2.0230 hc         1 1C7       0.056700
     43 H13          2.5380     4.1730     2.2230 hc         1 1C7       0.047950
     44 H14          3.2670     2.7570     2.9580 hc         1 1C7       0.047950
     45 H15          3.9570     3.9490     0.2410 hc         1 1C7       0.047950
     46 H16          5.0720     3.5170     1.5320 hc         1 1C7       0.047950
     47 H17          4.5280     1.1440     1.2860 hc         1 1C7       0.056700
     48 H18          4.8280     1.6990    -0.3670 hc         1 1C7       0.056700
     49 H19         -0.8650    -2.9190    -0.7960 h4         1 1C7       0.036100
     50 H20         -0.7010     2.7530    -1.9090 h4         1 1C7       0.167000
     51 H21         -3.0880     4.0780    -2.2190 h4         1 1C7       0.040100
     52 H22         -2.5960     0.0560     1.5810 ha         1 1C7       0.119500
     53 H23         -3.8880    -1.6010     2.8370 ha         1 1C7       0.112000
     54 H24         -6.1040    -2.3430     2.0200 ha         1 1C7       0.111000
     55 H25         -7.0180    -1.3950    -0.0760 ha         1 1C7       0.112000
     56 H26         -5.7150     0.2620    -1.3540 ha         1 1C7       0.119500
@<TRIPOS>BOND
     1     1     2 2   
     2     2     3 1   
     3     2     6 1   
     4     3     4 1   
     5     3     5 1   
     6     4    31 1   
     7     4    32 1   
     8     4    33 1   
     9     5    15 ar  
    10     5    19 ar  
    11     6     7 1   
    12     6     9 1   
    13     6    34 1   
    14     7     8 1   
    15     7    35 1   
    16     7    36 1   
    17     8    37 1   
    18     8    38 1   
    19     8    39 1   
    20     9    10 1   
    21     9    15 1   
    22    10    11 1   
    23    10    14 1   
    24    10    40 1   
    25    11    12 1   
    26    11    41 1   
    27    11    42 1   
    28    12    13 1   
    29    12    43 1   
    30    12    44 1   
    31    13    14 1   
    32    13    45 1   
    33    13    46 1   
    34    14    47 1   
    35    14    48 1   
    36    15    16 ar  
    37    16    17 ar  
    38    17    18 ar  
    39    17    20 1   
    40    18    19 ar  
    41    19    49 1   
    42    20    21 1   
    43    20    24 1   
    44    21    22 2   
    45    21    50 1   
    46    22    23 1   
    47    22    51 1   
    48    23    24 2   
    49    24    25 1   
    50    25    26 ar  
    51    25    30 ar  
    52    26    27 ar  
    53    26    52 1   
    54    27    28 ar  
    55    27    53 1   
    56    28    29 ar  
    57    28    54 1   
    58    29    30 ar  
    59    29    55 1   
    60    30    56 1   
@<TRIPOS>SUBSTRUCTURE
     1 1C7         1 TEMP              0 ****  ****    0 ROOT
