@<TRIPOS>MOLECULE
1C7
   56    60     1     0     0
SMALL
No Charge or Current Charge


@<TRIPOS>ATOM
      1 O18          3.9000    -3.1890     0.2090 o          1 1C7      -0.527000
      2 C8           3.0490    -2.3810    -0.1570 c          1 1C7       0.571000
      3 N7           1.7020    -2.7470    -0.3940 n          1 1C7      -0.197400
      4 C19          1.2950    -4.1610    -0.2080 c3         1 1C7       0.080300
      5 C2           0.6880    -1.7440    -0.6430 ca         1 1C7      -0.188000
      6 C9           3.3910    -0.8700    -0.3590 c6         1 1C7       0.145500
      7 C16          3.8700    -0.6170    -1.8240 c3         1 1C7      -0.098400
      8 C17          5.1430    -1.3820    -2.2450 c3         1 1C7      -0.090100
      9 N10          2.2510     0.0780    -0.0700 nh         1 1C7      -0.757300
     10 C11          2.4340     1.4880     0.4300 c5         1 1C7       0.233500
     11 C15          1.6160     1.6330     1.7440 c5         1 1C7      -0.086400
     12 C14          2.2360     2.9080     2.3980 c5         1 1C7      -0.080900
     13 C13          3.6400     3.0680     1.7270 c5         1 1C7      -0.080900
     14 C12          3.8570     1.7120     1.0090 c5         1 1C7      -0.086400
     15 C3           0.9810    -0.3680    -0.5250 ca         1 1C7       0.364900
     16 N4           0.0780     0.5710    -0.8690 nb         1 1C7      -0.248000
     17 C5          -1.1190     0.1870    -1.3650 ca         1 1C7       0.238500
     18 N6          -1.4340    -1.1110    -1.5820 nb         1 1C7      -0.176000
     19 C1          -0.5400    -2.0600    -1.2510 ca         1 1C7       0.103900
     20 N20         -2.0470     1.1690    -1.6830 na         1 1C7      -0.174000
     21 C24         -1.9680     1.9340    -2.8210 cc         1 1C7      -0.196000
     22 C23         -3.2050     2.5220    -2.9080 cd         1 1C7       0.231900
     23 N22         -4.0300     2.1030    -1.8750 nd         1 1C7      -0.665000
     24 C21         -3.3090     1.2680    -1.1340 cc         1 1C7       0.495000
     25 C25         -3.8030     0.5790     0.0720 ca         1 1C7      -0.109500
     26 C30         -2.9470     0.2670     1.1550 ca         1 1C7      -0.077000
     27 C29         -3.4500    -0.3540     2.3120 ca         1 1C7      -0.117500
     28 C28         -4.8170    -0.6520     2.4150 ca         1 1C7      -0.102000
     29 C27         -5.6850    -0.3150     1.3640 ca         1 1C7      -0.117500
     30 C26         -5.1830     0.3060     0.2070 ca         1 1C7      -0.077000
     31 H1           1.3140    -4.6770    -1.1750 h1         1 1C7       0.054033
     32 H2           1.9660    -4.6780     0.4880 h1         1 1C7       0.054033
     33 H3           0.2800    -4.2090     0.2070 h1         1 1C7       0.054033
     34 H4           4.2410    -0.7010     0.3140 h1         1 1C7       0.101700
     35 H5           3.0660    -0.8660    -2.5280 hc         1 1C7       0.052200
     36 H6           4.0680     0.4530    -1.9580 hc         1 1C7       0.052200
     37 H7           5.4520    -1.0800    -3.2530 hc         1 1C7       0.043700
     38 H8           5.9700    -1.1700    -1.5560 hc         1 1C7       0.043700
     39 H9           4.9700    -2.4650    -2.2580 hc         1 1C7       0.043700
     40 H10          2.1740     2.2460    -0.3240 h1         1 1C7       0.053700
     41 H11          0.5410     1.7480     1.5660 hc         1 1C7       0.056700
     42 H12          1.7430     0.7600     2.3950 hc         1 1C7       0.056700
     43 H13          1.6160     3.7950     2.2180 hc         1 1C7       0.047950
     44 H14          2.3150     2.7930     3.4860 hc         1 1C7       0.047950
     45 H15          3.6370     3.8960     1.0080 hc         1 1C7       0.047950
     46 H16          4.4290     3.2810     2.4580 hc         1 1C7       0.047950
     47 H17          4.1530     0.9400     1.7300 hc         1 1C7       0.056700
     48 H18          4.6290     1.7710     0.2340 hc         1 1C7       0.056700
     49 H19         -0.8280    -3.0850    -1.4750 h4         1 1C7       0.036100
     50 H20         -1.0950     1.9930    -3.4590 h4         1 1C7       0.167000
     51 H21         -3.5560     3.2080    -3.6690 h4         1 1C7       0.040100
     52 H22         -1.8910     0.5170     1.1200 ha         1 1C7       0.119500
     53 H23         -2.7790    -0.5950     3.1330 ha         1 1C7       0.112000
     54 H24         -5.2060    -1.1310     3.3110 ha         1 1C7       0.111000
     55 H25         -6.7480    -0.5310     1.4470 ha         1 1C7       0.112000
     56 H26         -5.8720     0.5640    -0.5950 ha         1 1C7       0.119500
@<TRIPOS>BOND
     1     1     2 2   
     2     2     3 1   
     3     2     6 1   
     4     3     4 1   
     5     3     5 1   
     6     4    31 1   
     7     4    32 1   
     8     4    33 1   
     9     5    15 ar  
    10     5    19 ar  
    11     6     7 1   
    12     6     9 1   
    13     6    34 1   
    14     7     8 1   
    15     7    35 1   
    16     7    36 1   
    17     8    37 1   
    18     8    38 1   
    19     8    39 1   
    20     9    10 1   
    21     9    15 1   
    22    10    11 1   
    23    10    14 1   
    24    10    40 1   
    25    11    12 1   
    26    11    41 1   
    27    11    42 1   
    28    12    13 1   
    29    12    43 1   
    30    12    44 1   
    31    13    14 1   
    32    13    45 1   
    33    13    46 1   
    34    14    47 1   
    35    14    48 1   
    36    15    16 ar  
    37    16    17 ar  
    38    17    18 ar  
    39    17    20 1   
    40    18    19 ar  
    41    19    49 1   
    42    20    21 1   
    43    20    24 1   
    44    21    22 2   
    45    21    50 1   
    46    22    23 1   
    47    22    51 1   
    48    23    24 2   
    49    24    25 1   
    50    25    26 ar  
    51    25    30 ar  
    52    26    27 ar  
    53    26    52 1   
    54    27    28 ar  
    55    27    53 1   
    56    28    29 ar  
    57    28    54 1   
    58    29    30 ar  
    59    29    55 1   
    60    30    56 1   
@<TRIPOS>SUBSTRUCTURE
     1 1C7         1 TEMP              0 ****  ****    0 ROOT
