@<TRIPOS>MOLECULE
1C8
   52    56     1     0     0
SMALL
abcg2


@<TRIPOS>ATOM
      1 O12          4.1380    -2.6880     0.6060 o          1 1C8      -0.529000
      2 C9           3.2470    -1.9520     0.2280 c          1 1C8       0.571000
      3 N10          1.9680    -2.3740     0.0300 n          1 1C8      -0.197400
      4 C11          1.6110    -3.7710     0.1980 c3         1 1C8       0.080300
      5 C2           0.9720    -1.4640    -0.3140 ca         1 1C8      -0.189000
      6 C8           3.5180    -0.5010    -0.1280 c6         1 1C8       0.148500
      7 C13          3.8350    -0.3590    -1.6260 c3         1 1C8      -0.099400
      8 C14          5.1050    -1.0750    -2.0600 c3         1 1C8      -0.090100
      9 N7           2.4050     0.3450     0.2820 nh         1 1C8      -0.758300
     10 C15          2.6180     1.7730     0.5350 c5         1 1C8       0.233500
     11 C19          4.0540     2.1500     0.8920 c5         1 1C8      -0.088900
     12 C18          3.8810     3.5650     1.4310 c5         1 1C8      -0.079900
     13 C17          2.6350     3.4610     2.3200 c5         1 1C8      -0.079900
     14 C16          1.7990     2.3080     1.7260 c5         1 1C8      -0.088900
     15 C3           1.1880    -0.0770    -0.1150 ca         1 1C8       0.368900
     16 N4           0.2000     0.7850    -0.2960 nb         1 1C8      -0.246000
     17 C5          -0.9500     0.3040    -0.7270 ca         1 1C8       0.254500
     18 N6          -1.2380    -0.9360    -1.0220 nb         1 1C8      -0.177000
     19 C1          -0.2680    -1.8270    -0.7830 ca         1 1C8       0.106900
     20 N20         -1.9600     1.2640    -0.9320 na         1 1C8      -0.159000
     21 C24         -1.7480     2.5100    -1.4690 cc         1 1C8      -0.191000
     22 C23         -2.9860     3.0420    -1.6540 cd         1 1C8       0.228900
     23 N22         -3.9470     2.1700    -1.2270 nd         1 1C8      -0.662000
     24 C21         -3.3110     1.1110    -0.8000 cc         1 1C8       0.412500
     25 C25         -3.9570    -0.0370    -0.1740 cc         1 1C8       0.257000
     26 C29         -5.1440    -0.5620    -0.5870 cd         1 1C8      -0.220000
     27 S28         -5.5990    -1.8400     0.4510 ss         1 1C8      -0.028400
     28 C27         -4.1680    -1.5750     1.3680 cd         1 1C8       0.409300
     29 N26         -3.4170    -0.6180     0.9400 nc         1 1C8      -0.620000
     30 H1           1.3650    -4.2280    -0.7610 h1         1 1C8       0.053033
     31 H2           2.4480    -4.3070     0.6310 h1         1 1C8       0.053033
     32 H3           0.7520    -3.8600     0.8620 h1         1 1C8       0.053033
     33 H4           4.3950    -0.2160     0.4500 h1         1 1C8       0.101700
     34 H5           2.9850    -0.7100    -2.2180 hc         1 1C8       0.052200
     35 H6           3.9350     0.7080    -1.8390 hc         1 1C8       0.052200
     36 H7           5.3040    -0.8760    -3.1130 hc         1 1C8       0.042700
     37 H8           5.9690    -0.7310    -1.4890 hc         1 1C8       0.042700
     38 H9           5.0350    -2.1560    -1.9400 hc         1 1C8       0.042700
     39 H10          2.3380     2.3330    -0.3650 h1         1 1C8       0.055700
     40 H11          4.4330     1.5050     1.6910 hc         1 1C8       0.057950
     41 H12          4.7460     2.0910     0.0510 hc         1 1C8       0.057950
     42 H13          4.7610     3.9170     1.9690 hc         1 1C8       0.046700
     43 H14          3.7090     4.2590     0.6040 hc         1 1C8       0.046700
     44 H15          2.9290     3.2240     3.3440 hc         1 1C8       0.046700
     45 H16          2.0800     4.3990     2.3610 hc         1 1C8       0.046700
     46 H17          0.8080     2.6270     1.4100 hc         1 1C8       0.057950
     47 H18          1.6630     1.5090     2.4580 hc         1 1C8       0.057950
     48 H19         -0.5140    -2.8630    -0.9800 h4         1 1C8       0.033100
     49 H20         -0.7590     2.8780    -1.6820 h4         1 1C8       0.168000
     50 H21         -3.2350     4.0090    -2.0620 h4         1 1C8       0.040100
     51 H22         -5.7440    -0.2660    -1.4320 h4         1 1C8       0.175000
     52 H23         -3.9470    -2.1750     2.2400 h5         1 1C8       0.051100
@<TRIPOS>BOND
     1     1     2 2   
     2     2     3 1   
     3     2     6 1   
     4     3     4 1   
     5     3     5 1   
     6     4    30 1   
     7     4    31 1   
     8     4    32 1   
     9     5    15 ar  
    10     5    19 ar  
    11     6     7 1   
    12     6     9 1   
    13     6    33 1   
    14     7     8 1   
    15     7    34 1   
    16     7    35 1   
    17     8    36 1   
    18     8    37 1   
    19     8    38 1   
    20     9    10 1   
    21     9    15 1   
    22    10    11 1   
    23    10    14 1   
    24    10    39 1   
    25    11    12 1   
    26    11    40 1   
    27    11    41 1   
    28    12    13 1   
    29    12    42 1   
    30    12    43 1   
    31    13    14 1   
    32    13    44 1   
    33    13    45 1   
    34    14    46 1   
    35    14    47 1   
    36    15    16 ar  
    37    16    17 ar  
    38    17    18 ar  
    39    17    20 1   
    40    18    19 ar  
    41    19    48 1   
    42    20    21 1   
    43    20    24 1   
    44    21    22 2   
    45    21    49 1   
    46    22    23 1   
    47    22    50 1   
    48    23    24 2   
    49    24    25 1   
    50    25    26 2   
    51    25    29 1   
    52    26    27 1   
    53    26    51 1   
    54    27    28 1   
    55    28    29 2   
    56    28    52 1   
@<TRIPOS>SUBSTRUCTURE
     1 1C8         1 TEMP              0 ****  ****    0 ROOT
