@<TRIPOS>MOLECULE
1C8
   52    56     1     0     0
SMALL
No Charge or Current Charge


@<TRIPOS>ATOM
      1 O12          4.3370    -2.7190     0.3910 o          1 1C8      -0.529000
      2 C9           3.4010    -2.0360    -0.0160 c          1 1C8       0.571000
      3 N10          2.1520    -2.5940    -0.3840 n          1 1C8      -0.197400
      4 C11          1.9610    -4.0620    -0.2860 c3         1 1C8       0.080300
      5 C2           1.0150    -1.7500    -0.6830 ca         1 1C8      -0.189000
      6 C8           3.5130    -0.4820    -0.1310 c6         1 1C8       0.148500
      7 C13          4.0650    -0.0830    -1.5370 c3         1 1C8      -0.099400
      8 C14          5.4730    -0.6190    -1.8720 c3         1 1C8      -0.090100
      9 N7           2.2170     0.2610     0.0900 nh         1 1C8      -0.758300
     10 C15          2.1290     1.6530     0.6640 c5         1 1C8       0.233500
     11 C19          3.4400     2.0560     1.3900 c5         1 1C8      -0.088900
     12 C18          2.9480     3.3210     2.1400 c5         1 1C8      -0.079900
     13 C17          1.5310     2.9130     2.6610 c5         1 1C8      -0.079900
     14 C16          1.1800     1.5980     1.8940 c5         1 1C8      -0.088900
     15 C3           1.0750    -0.3530    -0.4920 ca         1 1C8       0.368900
     16 N4           0.0690     0.4520    -0.8840 nb         1 1C8      -0.246000
     17 C5          -1.0120    -0.0900    -1.4880 ca         1 1C8       0.254500
     18 N6          -1.1010    -1.4090    -1.7790 nb         1 1C8      -0.177000
     19 C1          -0.0970    -2.2220    -1.4060 ca         1 1C8       0.106900
     20 N20         -2.0530     0.7500    -1.8620 na         1 1C8      -0.159000
     21 C24         -2.1420     1.3250    -3.1060 cc         1 1C8      -0.191000
     22 C23         -3.1940     2.1970    -2.9900 cd         1 1C8       0.228900
     23 N22         -3.7220     2.1760    -1.7080 nd         1 1C8      -0.662000
     24 C21         -3.0080     1.2870    -1.0140 cc         1 1C8       0.412500
     25 C25         -3.1830     0.9090     0.3920 cc         1 1C8       0.257000
     26 C29         -4.1570     1.5320     1.1380 cd         1 1C8      -0.220000
     27 S28         -4.1770     0.9230     2.7830 ss         1 1C8      -0.028400
     28 C27         -2.8560    -0.1470     2.3230 cd         1 1C8       0.409300
     29 N26         -2.4480    -0.0500     1.0640 nc         1 1C8      -0.620000
     30 H1           2.1400    -4.5200    -1.2670 h1         1 1C8       0.053033
     31 H2           2.6480    -4.5030     0.4460 h1         1 1C8       0.053033
     32 H3           0.9370    -4.2880     0.0360 h1         1 1C8       0.053033
     33 H4           4.2670    -0.2170     0.6210 h1         1 1C8       0.101700
     34 H5           3.3700    -0.4160    -2.3190 hc         1 1C8       0.052200
     35 H6           4.1000     1.0110    -1.6120 hc         1 1C8       0.052200
     36 H7           5.8120    -0.2200    -2.8360 hc         1 1C8       0.042700
     37 H8           6.1960    -0.3180    -1.1050 hc         1 1C8       0.042700
     38 H9           5.4740    -1.7130    -1.9420 hc         1 1C8       0.042700
     39 H10          1.8240     2.4040    -0.0800 h1         1 1C8       0.055700
     40 H11          3.7860     1.2990     2.1040 hc         1 1C8       0.057950
     41 H12          4.2610     2.2760     0.6990 hc         1 1C8       0.057950
     42 H13          3.6230     3.6100     2.9530 hc         1 1C8       0.046700
     43 H14          2.8820     4.1790     1.4600 hc         1 1C8       0.046700
     44 H15          1.5270     2.7480     3.7450 hc         1 1C8       0.046700
     45 H16          0.7990     3.7030     2.4580 hc         1 1C8       0.046700
     46 H17          0.1220     1.5590     1.6160 hc         1 1C8       0.057950
     47 H18          1.3800     0.7180     2.5180 hc         1 1C8       0.057950
     48 H19         -0.1990    -3.2680    -1.6900 h4         1 1C8       0.033100
     49 H20         -1.4850     1.0930    -3.9350 h4         1 1C8       0.168000
     50 H21         -3.5960     2.8500    -3.7560 h4         1 1C8       0.040100
     51 H22         -4.8480     2.3030     0.8230 h4         1 1C8       0.175000
     52 H23         -2.4380    -0.8250     3.0570 h5         1 1C8       0.051100
@<TRIPOS>BOND
     1     1     2 2   
     2     2     3 1   
     3     2     6 1   
     4     3     4 1   
     5     3     5 1   
     6     4    30 1   
     7     4    31 1   
     8     4    32 1   
     9     5    15 ar  
    10     5    19 ar  
    11     6     7 1   
    12     6     9 1   
    13     6    33 1   
    14     7     8 1   
    15     7    34 1   
    16     7    35 1   
    17     8    36 1   
    18     8    37 1   
    19     8    38 1   
    20     9    10 1   
    21     9    15 1   
    22    10    11 1   
    23    10    14 1   
    24    10    39 1   
    25    11    12 1   
    26    11    40 1   
    27    11    41 1   
    28    12    13 1   
    29    12    42 1   
    30    12    43 1   
    31    13    14 1   
    32    13    44 1   
    33    13    45 1   
    34    14    46 1   
    35    14    47 1   
    36    15    16 ar  
    37    16    17 ar  
    38    17    18 ar  
    39    17    20 1   
    40    18    19 ar  
    41    19    48 1   
    42    20    21 1   
    43    20    24 1   
    44    21    22 2   
    45    21    49 1   
    46    22    23 1   
    47    22    50 1   
    48    23    24 2   
    49    24    25 1   
    50    25    26 2   
    51    25    29 1   
    52    26    27 1   
    53    26    51 1   
    54    27    28 1   
    55    28    29 2   
    56    28    52 1   
@<TRIPOS>SUBSTRUCTURE
     1 1C8         1 TEMP              0 ****  ****    0 ROOT
