@<TRIPOS>MOLECULE
1C9
   58    61     1     0     0
SMALL
No Charge or Current Charge


@<TRIPOS>ATOM
      1 C1           0.3880     2.1320     0.0530 ca         1 1C9      -0.044000
      2 C2           0.3880     3.4580     0.5340 ca         1 1C9       0.133100
      3 C3          -0.8220     4.0690     0.9240 ca         1 1C9      -0.180000
      4 C4          -2.0390     3.3730     0.8410 ca         1 1C9       0.066000
      5 C5          -2.0460     2.0430     0.3580 ca         1 1C9      -0.174000
      6 C6          -0.8340     1.4310    -0.0400 ca         1 1C9      -0.095000
      7 N7          -3.1870     3.9740     1.2160 nb         1 1C9      -0.205000
      8 C8          -4.3220     3.2570     1.1130 ca         1 1C9       0.167900
      9 N9          -4.4340     1.9910     0.6740 nb         1 1C9      -0.279000
     10 C10         -3.3000     1.3830     0.2880 ca         1 1C9       0.409900
     11 N14         -3.4160     0.0530    -0.1230 nu         1 1C9      -0.928900
     12 C15         -4.4880    -0.7500    -0.5280 ca         1 1C9       0.303000
     13 C16         -4.3820    -2.1430    -0.3740 ca         1 1C9      -0.140000
     14 C17         -5.4300    -2.9870    -0.7790 ca         1 1C9       0.096000
     15 C18         -6.5920    -2.4390    -1.3550 ca         1 1C9       0.151000
     16 C19         -6.7010    -1.0510    -1.5290 ca         1 1C9      -0.122000
     17 C20         -5.6490    -0.2090    -1.1200 ca         1 1C9      -0.098000
     18 F21         -7.6060    -3.2420    -1.7520 f          1 1C9      -0.162000
     19 Cl          -5.2690    -4.7290    -0.5600 cl         1 1C9      -0.170000
     20 O11          1.6000     4.1250     0.6060 os         1 1C9      -0.362100
     21 C12          1.7130     5.4790     1.0830 c3         1 1C9       0.151900
     22 N13          1.6390     1.5680    -0.3330 ns         1 1C9      -0.136000
     23 C26          2.0170     0.2890    -0.7130 c          1 1C9       0.616300
     24 C24          3.4670     0.1680    -1.0420 ce         1 1C9      -0.321200
     25 C23          4.0970    -1.0120    -1.2680 c2         1 1C9      -0.115200
     26 C25          5.5690    -1.1890    -1.5720 c3         1 1C9       0.187000
     27 N33          6.2950    -1.8410    -0.4580 n3         1 1C9      -0.716600
     28 O27          1.2640    -0.6770    -0.7490 o          1 1C9      -0.597100
     29 C30          7.6790    -2.2310    -0.8490 c6         1 1C9       0.167300
     30 C31          8.3920    -3.0210     0.2770 c6         1 1C9      -0.075400
     31 C32          8.4060    -2.2150     1.5960 c6         1 1C9      -0.075400
     32 C33          6.9700    -1.7790     1.9660 c6         1 1C9      -0.075400
     33 C34          6.2950    -1.0260     0.7930 c6         1 1C9       0.167300
     34 H6          -0.8490     0.4230    -0.4380 ha         1 1C9       0.147000
     35 H8          -5.2420     3.7520     1.4220 h5         1 1C9       0.046100
     36 H20         -5.7340     0.8610    -1.2800 ha         1 1C9       0.159000
     37 H24          4.0320     1.0980    -1.0540 ha         1 1C9       0.179000
     38 H19         -7.5940    -0.6300    -1.9840 ha         1 1C9       0.136000
     39 H3          -0.8380     5.0890     1.2950 ha         1 1C9       0.141000
     40 H16         -3.4900    -2.5750     0.0700 ha         1 1C9       0.132000
     41 H12          1.1270     6.1640     0.4560 h1         1 1C9       0.048367
     42 H12A         1.3600     5.5590     2.1190 h1         1 1C9       0.048367
     43 H12B         2.7590     5.8050     1.0550 h1         1 1C9       0.048367
     44 H23          3.5490    -1.9560    -1.2360 ha         1 1C9       0.208000
     45 H25          5.6570    -1.8000    -2.4820 h1         1 1C9       0.042700
     46 H25A         6.0190    -0.2120    -1.7990 h1         1 1C9       0.042700
     47 HN14        -2.5420    -0.4600    -0.0260 hn         1 1C9       0.508000
     48 HN13         2.3980     2.2360    -0.3230 hn         1 1C9       0.171000
     49 H161         7.6570    -2.8560    -1.7540 h1         1 1C9       0.030950
     50 H17          8.2720    -1.3360    -1.0890 h1         1 1C9       0.030950
     51 H18          7.8790    -3.9800     0.4320 hc         1 1C9       0.048200
     52 H191         9.4190    -3.2600    -0.0290 hc         1 1C9       0.048200
     53 H201         8.8400    -2.8190     2.4050 hc         1 1C9       0.039700
     54 H21          9.0460    -1.3290     1.4830 hc         1 1C9       0.039700
     55 H22          6.3690    -2.6610     2.2270 hc         1 1C9       0.048200
     56 H231         6.9900    -1.1380     2.8570 hc         1 1C9       0.048200
     57 H241         6.8240    -0.0750     0.6260 h1         1 1C9       0.030950
     58 H251         5.2680    -0.7740     1.0930 h1         1 1C9       0.030950
@<TRIPOS>BOND
     1     1     2 ar  
     2     1     6 ar  
     3     1    22 1   
     4     2     3 ar  
     5     2    20 1   
     6     3     4 ar  
     7     3    39 1   
     8     4     5 ar  
     9     4     7 ar  
    10     5     6 ar  
    11     5    10 ar  
    12     6    34 1   
    13     7     8 ar  
    14     8     9 ar  
    15     8    35 1   
    16     9    10 ar  
    17    10    11 1   
    18    11    12 1   
    19    11    47 1   
    20    12    13 ar  
    21    12    17 ar  
    22    13    14 ar  
    23    13    40 1   
    24    14    15 ar  
    25    14    19 1   
    26    15    16 ar  
    27    15    18 1   
    28    16    17 ar  
    29    16    38 1   
    30    17    36 1   
    31    20    21 1   
    32    21    41 1   
    33    21    42 1   
    34    21    43 1   
    35    22    23 1   
    36    22    48 1   
    37    23    24 1   
    38    23    28 2   
    39    24    25 2   
    40    24    37 1   
    41    25    26 1   
    42    25    44 1   
    43    26    27 1   
    44    26    45 1   
    45    26    46 1   
    46    27    29 1   
    47    27    33 1   
    48    29    30 1   
    49    29    49 1   
    50    29    50 1   
    51    30    31 1   
    52    30    51 1   
    53    30    52 1   
    54    31    32 1   
    55    31    53 1   
    56    31    54 1   
    57    32    33 1   
    58    32    55 1   
    59    32    56 1   
    60    33    57 1   
    61    33    58 1   
@<TRIPOS>SUBSTRUCTURE
     1 1C9         1 TEMP              0 ****  ****    0 ROOT
