@<TRIPOS>MOLECULE
1C9
   58    61     1     0     0
SMALL
bcc


@<TRIPOS>ATOM
      1 C1           0.3860     2.5220     0.0370 ca         1 1C9       0.048600
      2 C2           0.1940     3.9200     0.2810 ca         1 1C9       0.133100
      3 C3          -1.0670     4.4420     0.3910 ca         1 1C9      -0.263300
      4 C4          -2.1980     3.6110     0.2710 ca         1 1C9       0.459600
      5 C5          -2.0170     2.2350     0.0440 ca         1 1C9      -0.304600
      6 C6          -0.7150     1.7090    -0.0760 ca         1 1C9      -0.113000
      7 N7          -3.4300     4.1720     0.3790 nb         1 1C9      -0.731000
      8 C8          -4.4380     3.3590     0.2600 ca         1 1C9       0.693900
      9 N9          -4.4030     2.0360     0.0550 nb         1 1C9      -0.805000
     10 C10         -3.2230     1.4620    -0.0460 ca         1 1C9       0.738200
     11 N14         -3.1410     0.1220    -0.2290 nu         1 1C9      -0.735300
     12 C15         -4.1440    -0.8410    -0.3420 ca         1 1C9       0.164600
     13 C16         -3.7290    -2.1710    -0.2230 ca         1 1C9      -0.158000
     14 C17         -4.6390    -3.2030    -0.3510 ca         1 1C9       0.004400
     15 C18         -5.9730    -2.9230    -0.5920 ca         1 1C9       0.115900
     16 C19         -6.3950    -1.6170    -0.7120 ca         1 1C9      -0.140000
     17 C20         -5.4900    -0.5720    -0.5910 ca         1 1C9      -0.116000
     18 F21         -6.8460    -3.9280    -0.7080 f          1 1C9      -0.126900
     19 CL          -4.1290    -4.8410    -0.2030 cl         1 1C9      -0.078400
     20 O11          1.3240     4.6270     0.3820 os         1 1C9      -0.338900
     21 C12          1.2430     6.0270     0.5940 c3         1 1C9       0.128700
     22 N13          1.7070     2.0990    -0.0570 ns         1 1C9      -0.462100
     23 C26          2.1880     0.8800    -0.4270 c          1 1C9       0.683300
     24 C24          3.6650     0.8170    -0.4200 ce         1 1C9      -0.271200
     25 C23          4.3200    -0.2690    -0.8230 c2         1 1C9      -0.065200
     26 C25          5.8080    -0.3800    -0.8830 c3         1 1C9       0.187000
     27 N33          6.2700    -1.6590    -0.3880 n3         1 1C9      -0.716600
     28 O27          1.4760    -0.0630    -0.7330 o          1 1C9      -0.597100
     29 C30          7.6670    -1.8840    -0.7200 c6         1 1C9       0.167300
     30 C31          8.1110    -3.2780    -0.3070 c6         1 1C9      -0.075400
     31 C32          7.8680    -3.5030     1.1800 c6         1 1C9      -0.075400
     32 C33          6.4170    -3.1920     1.5230 c6         1 1C9      -0.075400
     33 C34          6.0320    -1.8030     1.0400 c6         1 1C9       0.167300
     34 H6          -0.5520     0.6600    -0.2640 ha         1 1C9       0.165000
     35 H8          -5.4320     3.7890     0.3370 h5         1 1C9       0.046100
     36 H20         -5.8390     0.4410    -0.6880 ha         1 1C9       0.177000
     37 H24          4.2140     1.6870    -0.0720 ha         1 1C9       0.129000
     38 H19         -7.4390    -1.4070    -0.9050 ha         1 1C9       0.154000
     39 H3          -1.2330     5.4950     0.5690 ha         1 1C9       0.159000
     40 H16         -2.6900    -2.4040    -0.0280 ha         1 1C9       0.150000
     41 H12          0.7060     6.5220    -0.2180 h1         1 1C9       0.048367
     42 H12A         0.7550     6.2600     1.5420 h1         1 1C9       0.048367
     43 H12B         2.2660     6.3910     0.6200 h1         1 1C9       0.048367
     44 H23          3.7640    -1.1380    -1.1630 ha         1 1C9       0.158000
     45 H25          6.1010    -0.3000    -1.9370 h1         1 1C9       0.042700
     46 H25A         6.2740     0.4750    -0.3650 h1         1 1C9       0.042700
     47 HN14        -2.2130    -0.2660    -0.2130 hn         1 1C9       0.452800
     48 HN13         2.3970     2.8070     0.1450 hn         1 1C9       0.337500
     49 H161         7.7900    -1.7580    -1.7990 h1         1 1C9       0.030950
     50 H17          8.3210    -1.1360    -0.2370 h1         1 1C9       0.030950
     51 H18          7.5540    -4.0190    -0.8880 hc         1 1C9       0.048200
     52 H191         9.1680    -3.4080    -0.5520 hc         1 1C9       0.048200
     53 H201         8.1220    -4.5260     1.4640 hc         1 1C9       0.039700
     54 H21          8.5260    -2.8440     1.7570 hc         1 1C9       0.039700
     55 H22          5.7600    -3.9300     1.0530 hc         1 1C9       0.048200
     56 H231         6.2500    -3.2570     2.6010 hc         1 1C9       0.048200
     57 H241         6.5950    -1.0450     1.6140 h1         1 1C9       0.030950
     58 H251         4.9730    -1.6230     1.2420 h1         1 1C9       0.030950
@<TRIPOS>BOND
     1     1     2 ar  
     2     1     6 ar  
     3     1    22 1   
     4     2     3 ar  
     5     2    20 1   
     6     3     4 ar  
     7     3    39 1   
     8     4     5 ar  
     9     4     7 ar  
    10     5     6 ar  
    11     5    10 ar  
    12     6    34 1   
    13     7     8 ar  
    14     8     9 ar  
    15     8    35 1   
    16     9    10 ar  
    17    10    11 1   
    18    11    12 1   
    19    11    47 1   
    20    12    13 ar  
    21    12    17 ar  
    22    13    14 ar  
    23    13    40 1   
    24    14    15 ar  
    25    14    19 1   
    26    15    16 ar  
    27    15    18 1   
    28    16    17 ar  
    29    16    38 1   
    30    17    36 1   
    31    20    21 1   
    32    21    41 1   
    33    21    42 1   
    34    21    43 1   
    35    22    23 1   
    36    22    48 1   
    37    23    24 1   
    38    23    28 2   
    39    24    25 2   
    40    24    37 1   
    41    25    26 1   
    42    25    44 1   
    43    26    27 1   
    44    26    45 1   
    45    26    46 1   
    46    27    29 1   
    47    27    33 1   
    48    29    30 1   
    49    29    49 1   
    50    29    50 1   
    51    30    31 1   
    52    30    51 1   
    53    30    52 1   
    54    31    32 1   
    55    31    53 1   
    56    31    54 1   
    57    32    33 1   
    58    32    55 1   
    59    32    56 1   
    60    33    57 1   
    61    33    58 1   
@<TRIPOS>SUBSTRUCTURE
     1 1C9         1 TEMP              0 ****  ****    0 ROOT
