@<TRIPOS>MOLECULE
1CA
   54    57     1     0     0
SMALL
bcc


@<TRIPOS>ATOM
      1 C1           3.0010     1.7320     0.2920 c6         1 1CA      -0.064400
      2 C2           4.5120     1.8380     0.1590 c6         1 1CA      -0.181400
      3 C3           5.1910     0.5770     0.6140 c          1 1CA       0.575300
      4 C4           4.4650    -0.6630     0.3560 ce         1 1CA      -0.268200
      5 C5           3.2280    -0.7100    -0.1690 c2         1 1CA      -0.031400
      6 C6           2.6250    -2.0270    -0.5430 c6         1 1CA      -0.052200
      7 C7           1.2240    -2.1990     0.0300 c6         1 1CA      -0.068400
      8 C8           0.3240    -1.0350    -0.3610 c6         1 1CA      -0.045700
      9 C9           0.9510     0.2990     0.0800 c6         1 1CA      -0.046700
     10 C10          2.3990     0.5270    -0.4470 c6         1 1CA      -0.010800
     11 C11          0.0210     1.4770    -0.2320 c6         1 1CA      -0.070400
     12 C12         -1.3810     1.3070     0.3590 c6         1 1CA      -0.066400
     13 C13         -2.0090    -0.0100    -0.0810 c5         1 1CA      -0.034000
     14 C14         -1.0460    -1.1500     0.2900 c5         1 1CA      -0.063700
     15 C15         -1.8720    -2.4140     0.0750 c5         1 1CA      -0.070400
     16 C16         -3.3060    -1.9960     0.4730 c5         1 1CA      -0.066400
     17 C17         -3.2490    -0.4770     0.7310 c5         1 1CA      -0.167700
     18 C18         -2.3320     0.0200    -1.5790 c3         1 1CA      -0.085100
     19 C19          2.4190     0.7730    -1.9660 c3         1 1CA      -0.081100
     20 C20         -4.5220     0.2680     0.4250 c          1 1CA       0.575100
     21 C21         -4.7710     1.4740     1.2950 c3         1 1CA       0.032400
     22 O3           6.3040     0.5750     1.1130 o          1 1CA      -0.529100
     23 O20         -5.3000    -0.0610    -0.4410 o          1 1CA      -0.485100
     24 O21         -5.8930     2.1730     0.8490 oh         1 1CA      -0.565800
     25 H11          2.7470     1.6550     1.3540 hc         1 1CA       0.048200
     26 H12          2.5470     2.6560    -0.0670 hc         1 1CA       0.048200
     27 H21          4.8960     2.6890     0.7240 hc         1 1CA       0.070200
     28 H22          4.7980     2.0060    -0.8850 hc         1 1CA       0.070200
     29 H4           4.9990    -1.5880     0.5530 ha         1 1CA       0.145000
     30 H61          3.2780    -2.8430    -0.2280 hc         1 1CA       0.054700
     31 H62          2.5670    -2.0830    -1.6370 hc         1 1CA       0.054700
     32 H71          1.2800    -2.2690     1.1220 hc         1 1CA       0.046200
     33 H72          0.8060    -3.1440    -0.3240 hc         1 1CA       0.046200
     34 H8           0.2090    -1.0470    -1.4530 hc         1 1CA       0.055700
     35 H9           1.0400     0.2380     1.1750 hc         1 1CA       0.047700
     36 H111        -0.0590     1.6100    -1.3140 hc         1 1CA       0.043700
     37 H112         0.4440     2.4070     0.1530 hc         1 1CA       0.043700
     38 H121        -1.9960     2.1620     0.0600 hc         1 1CA       0.040700
     39 H122        -1.3190     1.3300     1.4530 hc         1 1CA       0.040700
     40 H14         -0.8740    -1.0550     1.3740 hc         1 1CA       0.043700
     41 H151        -1.8310    -2.7310    -0.9710 hc         1 1CA       0.045700
     42 H152        -1.5100    -3.2530     0.6690 hc         1 1CA       0.045700
     43 H161        -4.0190    -2.2260    -0.3190 hc         1 1CA       0.055200
     44 H162        -3.6490    -2.5190     1.3660 hc         1 1CA       0.055200
     45 H17         -3.0110    -0.2990     1.7870 hc         1 1CA       0.055700
     46 H181        -1.4350     0.1280    -2.1870 hc         1 1CA       0.041033
     47 H182        -2.8370    -0.8860    -1.9160 hc         1 1CA       0.041033
     48 H183        -2.9820     0.8630    -1.8210 hc         1 1CA       0.041033
     49 H191         3.4410     0.8120    -2.3440 hc         1 1CA       0.038700
     50 H192         1.8970    -0.0110    -2.5150 hc         1 1CA       0.038700
     51 H193         1.9440     1.7230    -2.2100 hc         1 1CA       0.038700
     52 H211        -4.8800     1.0970     2.3240 h1         1 1CA       0.035200
     53 H212        -3.8570     2.0860     1.3030 h1         1 1CA       0.035200
     54 HO          -6.0450     2.9050     1.4530 ho         1 1CA       0.405000
@<TRIPOS>BOND
     1     1     2 1   
     2     1    10 1   
     3     1    25 1   
     4     1    26 1   
     5     2     3 1   
     6     2    27 1   
     7     2    28 1   
     8     3     4 1   
     9     3    22 2   
    10     4     5 2   
    11     4    29 1   
    12     5     6 1   
    13     5    10 1   
    14     6     7 1   
    15     6    30 1   
    16     6    31 1   
    17     7     8 1   
    18     7    32 1   
    19     7    33 1   
    20     8     9 1   
    21     8    14 1   
    22     8    34 1   
    23     9    10 1   
    24     9    11 1   
    25     9    35 1   
    26    10    19 1   
    27    11    12 1   
    28    11    36 1   
    29    11    37 1   
    30    12    13 1   
    31    12    38 1   
    32    12    39 1   
    33    13    14 1   
    34    13    17 1   
    35    13    18 1   
    36    14    15 1   
    37    14    40 1   
    38    15    16 1   
    39    15    41 1   
    40    15    42 1   
    41    16    17 1   
    42    16    43 1   
    43    16    44 1   
    44    17    20 1   
    45    17    45 1   
    46    18    46 1   
    47    18    47 1   
    48    18    48 1   
    49    19    49 1   
    50    19    50 1   
    51    19    51 1   
    52    20    21 1   
    53    20    23 2   
    54    21    24 1   
    55    21    52 1   
    56    21    53 1   
    57    24    54 1   
@<TRIPOS>SUBSTRUCTURE
     1 1CA         1 TEMP              0 ****  ****    0 ROOT
