@<TRIPOS>MOLECULE
1CA
   54    57     1     0     0
SMALL
No Charge or Current Charge


@<TRIPOS>ATOM
      1 C1           3.1000     1.7860     0.2250 c6         1 1CA      -0.064400
      2 C2           4.6370     1.8590     0.0760 c6         1 1CA      -0.181400
      3 C3           5.3020     0.5910     0.6050 c          1 1CA       0.575300
      4 C4           4.5860    -0.6740     0.3170 ce         1 1CA      -0.318200
      5 C5           3.3110    -0.7360    -0.1380 c2         1 1CA      -0.031400
      6 C6           2.6650    -2.0870    -0.4340 c6         1 1CA      -0.052200
      7 C7           1.2520    -2.2050     0.1630 c6         1 1CA      -0.068400
      8 C8           0.3480    -1.0410    -0.3120 c6         1 1CA      -0.045700
      9 C9           0.9860     0.3370     0.0940 c6         1 1CA      -0.046700
     10 C10          2.4630     0.5190    -0.4560 c6         1 1CA      -0.010800
     11 C11          0.0290     1.5360    -0.2540 c6         1 1CA      -0.070400
     12 C12         -1.4050     1.3500     0.3230 c6         1 1CA      -0.066400
     13 C13         -2.0350     0.0010    -0.1290 c5         1 1CA      -0.034000
     14 C14         -1.0790    -1.1530     0.3000 c5         1 1CA      -0.063700
     15 C15         -1.9280    -2.4180    -0.0160 c5         1 1CA      -0.070400
     16 C16         -3.3780    -1.9940     0.4050 c5         1 1CA      -0.066400
     17 C17         -3.2660    -0.4580     0.7290 c5         1 1CA      -0.167700
     18 C18         -2.3310     0.0810    -1.6700 c3         1 1CA      -0.085100
     19 C19          2.4940     0.6940    -2.0130 c3         1 1CA      -0.081100
     20 C20         -4.5710     0.3240     0.3860 c          1 1CA       0.575100
     21 C21         -4.9950     1.3820     1.4510 c3         1 1CA       0.055600
     22 O3           6.3630     0.6180     1.2120 o          1 1CA      -0.529100
     23 O20         -5.2270     0.1490    -0.6390 o          1 1CA      -0.485100
     24 O21         -6.1550     2.1710     1.0850 oh         1 1CA      -0.628000
     25 H11          2.8630     1.7890     1.2980 hc         1 1CA       0.048200
     26 H12          2.6620     2.7060    -0.1850 hc         1 1CA       0.048200
     27 H21          5.0760     2.7450     0.5550 hc         1 1CA       0.070200
     28 H22          4.8650     1.9100    -0.9950 hc         1 1CA       0.070200
     29 H4           5.1460    -1.5790     0.5450 ha         1 1CA       0.195000
     30 H61          3.2890    -2.9040    -0.0470 hc         1 1CA       0.054700
     31 H62          2.6180    -2.2370    -1.5220 hc         1 1CA       0.054700
     32 H71          1.3180    -2.2100     1.2600 hc         1 1CA       0.046200
     33 H72          0.8170    -3.1700    -0.1290 hc         1 1CA       0.046200
     34 H8           0.2630    -1.1030    -1.4040 hc         1 1CA       0.055700
     35 H9           1.0640     0.3200     1.1910 hc         1 1CA       0.047700
     36 H111        -0.0290     1.6830    -1.3390 hc         1 1CA       0.043700
     37 H112         0.4310     2.4730     0.1510 hc         1 1CA       0.043700
     38 H121        -2.0430     2.1920     0.0220 hc         1 1CA       0.040700
     39 H122        -1.3510     1.3870     1.4200 hc         1 1CA       0.040700
     40 H14         -0.9030    -1.1140     1.3830 hc         1 1CA       0.043700
     41 H151        -1.8800    -2.6880    -1.0770 hc         1 1CA       0.045700
     42 H152        -1.5820    -3.2930     0.5470 hc         1 1CA       0.045700
     43 H161        -4.0850    -2.2070    -0.4050 hc         1 1CA       0.055200
     44 H162        -3.7300    -2.5560     1.2780 hc         1 1CA       0.055200
     45 H17         -3.0470    -0.2900     1.7910 hc         1 1CA       0.055700
     46 H181        -1.4190     0.1460    -2.2720 hc         1 1CA       0.041033
     47 H182        -2.8880    -0.7860    -2.0410 hc         1 1CA       0.041033
     48 H183        -2.9300     0.9670    -1.9120 hc         1 1CA       0.041033
     49 H191         3.5190     0.6700    -2.3990 hc         1 1CA       0.038700
     50 H192         1.9480    -0.1000    -2.5320 hc         1 1CA       0.038700
     51 H193         2.0570     1.6500    -2.3260 hc         1 1CA       0.038700
     52 H211        -5.1820     0.8420     2.3880 h1         1 1CA       0.035200
     53 H212        -4.1300     2.0370     1.6210 h1         1 1CA       0.035200
     54 HO          -6.3330     2.7970     1.8230 ho         1 1CA       0.444000
@<TRIPOS>BOND
     1     1     2 1   
     2     1    10 1   
     3     1    25 1   
     4     1    26 1   
     5     2     3 1   
     6     2    27 1   
     7     2    28 1   
     8     3     4 1   
     9     3    22 2   
    10     4     5 2   
    11     4    29 1   
    12     5     6 1   
    13     5    10 1   
    14     6     7 1   
    15     6    30 1   
    16     6    31 1   
    17     7     8 1   
    18     7    32 1   
    19     7    33 1   
    20     8     9 1   
    21     8    14 1   
    22     8    34 1   
    23     9    10 1   
    24     9    11 1   
    25     9    35 1   
    26    10    19 1   
    27    11    12 1   
    28    11    36 1   
    29    11    37 1   
    30    12    13 1   
    31    12    38 1   
    32    12    39 1   
    33    13    14 1   
    34    13    17 1   
    35    13    18 1   
    36    14    15 1   
    37    14    40 1   
    38    15    16 1   
    39    15    41 1   
    40    15    42 1   
    41    16    17 1   
    42    16    43 1   
    43    16    44 1   
    44    17    20 1   
    45    17    45 1   
    46    18    46 1   
    47    18    47 1   
    48    18    48 1   
    49    19    49 1   
    50    19    50 1   
    51    19    51 1   
    52    20    21 1   
    53    20    23 2   
    54    21    24 1   
    55    21    52 1   
    56    21    53 1   
    57    24    54 1   
@<TRIPOS>SUBSTRUCTURE
     1 1CA         1 TEMP              0 ****  ****    0 ROOT
