@<TRIPOS>MOLECULE
1CB
   17    17     1     0     0
SMALL
No Charge or Current Charge


@<TRIPOS>ATOM
      1 C2          -0.0530    -1.1980     0.2090 c5         1 1CB      -0.096400
      2 C1           0.6950    -0.0280    -0.4700 c5         1 1CB       0.148500
      3 C4          -0.0150     1.1590     0.2220 c5         1 1CB      -0.096400
      4 C5          -1.5130     0.7880     0.0240 c5         1 1CB      -0.077400
      5 C3          -1.5390    -0.7770     0.0210 c5         1 1CB      -0.077400
      6 N2           2.1420    -0.0520    -0.2350 n8         1 1CB      -0.984200
      7 H21          0.1640    -2.1640    -0.2620 hc         1 1CB       0.043950
      8 H22          0.2040    -1.2880     1.2710 hc         1 1CB       0.043950
      9 H1           0.5200    -0.0190    -1.5580 h1         1 1CB       0.059700
     10 H41          0.2410     1.2260     1.2860 hc         1 1CB       0.043950
     11 H42          0.2340     2.1230    -0.2360 hc         1 1CB       0.043950
     12 H51         -1.8930     1.1820    -0.9270 hc         1 1CB       0.041450
     13 H52         -2.1420     1.2110     0.8160 hc         1 1CB       0.041450
     14 H31         -1.9380    -1.1530    -0.9290 hc         1 1CB       0.041450
     15 H32         -2.1770    -1.1810     0.8150 hc         1 1CB       0.041450
     16 HN21         2.5500     0.8270    -0.5750 hn         1 1CB       0.390500
     17 HN22         2.3130    -0.0180     0.7760 hn         1 1CB       0.390500
@<TRIPOS>BOND
     1     1     2 1   
     2     1     5 1   
     3     1     7 1   
     4     1     8 1   
     5     2     3 1   
     6     2     6 1   
     7     2     9 1   
     8     3     4 1   
     9     3    10 1   
    10     3    11 1   
    11     4     5 1   
    12     4    12 1   
    13     4    13 1   
    14     5    14 1   
    15     5    15 1   
    16     6    16 1   
    17     6    17 1   
@<TRIPOS>SUBSTRUCTURE
     1 1CB         1 TEMP              0 ****  ****    0 ROOT
