@<TRIPOS>MOLECULE
1CB
   17    17     1     0     0
SMALL
bcc


@<TRIPOS>ATOM
      1 C2          -0.0550    -1.2020     0.0650 c5         1 1CB      -0.096400
      2 C1           0.7210     0.0250    -0.4230 c5         1 1CB       0.148500
      3 C4          -0.0690     1.1850     0.1910 c5         1 1CB      -0.096400
      4 C5          -1.5210     0.7750    -0.0350 c5         1 1CB      -0.077400
      5 C3          -1.5290    -0.7610     0.1380 c5         1 1CB      -0.077400
      6 N2           2.1390    -0.0650    -0.1260 n8         1 1CB      -0.873800
      7 H21          0.1000    -2.0710    -0.5760 hc         1 1CB       0.043950
      8 H22          0.3110    -1.4730     1.0610 hc         1 1CB       0.043950
      9 H1           0.6200     0.0920    -1.5130 h1         1 1CB       0.059700
     10 H41          0.1540     1.2430     1.2630 hc         1 1CB       0.043950
     11 H42          0.1840     2.1520    -0.2490 hc         1 1CB       0.043950
     12 H51         -1.8220     1.0380    -1.0520 hc         1 1CB       0.041450
     13 H52         -2.2180     1.2770     0.6380 hc         1 1CB       0.041450
     14 H31         -2.1310    -1.2370    -0.6370 hc         1 1CB       0.041450
     15 H32         -1.9720    -1.0480     1.0930 hc         1 1CB       0.041450
     16 HN21         2.6130     0.7610    -0.4700 hn         1 1CB       0.335300
     17 HN22         2.2690    -0.0540     0.8800 hn         1 1CB       0.335300
@<TRIPOS>BOND
     1     1     2 1   
     2     1     5 1   
     3     1     7 1   
     4     1     8 1   
     5     2     3 1   
     6     2     6 1   
     7     2     9 1   
     8     3     4 1   
     9     3    10 1   
    10     3    11 1   
    11     4     5 1   
    12     4    12 1   
    13     4    13 1   
    14     5    14 1   
    15     5    15 1   
    16     6    16 1   
    17     6    17 1   
@<TRIPOS>SUBSTRUCTURE
     1 1CB         1 TEMP              0 ****  ****    0 ROOT
