@<TRIPOS>MOLECULE
1CE
   32    35     1     0     0
SMALL
bcc


@<TRIPOS>ATOM
      1 O20          0.8590    -1.3840     0.9080 o          1 1CE      -0.587500
      2 C12          0.5190    -0.2220     0.7730 c          1 1CE       0.728100
      3 N7           1.4540     0.8020     0.9840 n          1 1CE      -0.418300
      4 C6           2.7810     0.4060     1.4230 c3         1 1CE       0.066700
      5 C3           3.5010    -0.3920     0.3960 cc         1 1CE       0.381800
      6 N2           4.2830    -1.4170     0.6150 nd         1 1CE      -0.366000
      7 N4           3.5130    -0.1560    -0.9150 na         1 1CE      -0.160400
      8 N5           4.2970    -1.0440    -1.5030 nc         1 1CE      -0.196800
      9 N1           4.7550    -1.7880    -0.5770 nd         1 1CE      -0.038000
     10 C11         -0.7780     0.2710     0.4020 cc         1 1CE      -0.223600
     11 C13         -1.9720    -0.4670     0.1170 cc         1 1CE      -0.028300
     12 C16         -2.1350    -1.9580     0.1570 c6         1 1CE      -0.016100
     13 C17         -3.6100    -2.3530     0.1400 c6         1 1CE      -0.074400
     14 C18         -4.3940    -1.5620    -0.9000 c6         1 1CE      -0.072400
     15 C19         -4.3840    -0.0700    -0.5750 c6         1 1CE      -0.003100
     16 C14         -3.0000     0.3610    -0.2130 cd         1 1CE      -0.073400
     17 S15         -2.5520     2.0370    -0.1720 ss         1 1CE      -0.011800
     18 C10         -0.9460     1.6380     0.2910 cd         1 1CE       0.192300
     19 N9           0.0000     2.5790     0.5100 nd         1 1CE      -0.579100
     20 C8           1.1540     2.1230     0.8500 cc         1 1CE       0.487800
     21 H6           3.3480     1.3110     1.6430 h1         1 1CE       0.091200
     22 H6A          2.7240    -0.1740     2.3420 h1         1 1CE       0.091200
     23 HN4          3.0410     0.5520    -1.4610 hn         1 1CE       0.337700
     24 H16         -1.6150    -2.3990    -0.6990 hc         1 1CE       0.066700
     25 H16A        -1.6490    -2.3640     1.0450 hc         1 1CE       0.066700
     26 H17         -3.6970    -3.4240    -0.0520 hc         1 1CE       0.045700
     27 H17A        -4.0430    -2.1750     1.1290 hc         1 1CE       0.045700
     28 H18         -3.9590    -1.7260    -1.8910 hc         1 1CE       0.045700
     29 H18A        -5.4260    -1.9130    -0.9490 hc         1 1CE       0.045700
     30 H19         -4.7570     0.5080    -1.4230 hc         1 1CE       0.052700
     31 H19A        -5.0630     0.1350     0.2580 hc         1 1CE       0.052700
     32 H8           1.9650     2.8120     1.0460 h5         1 1CE       0.050800
@<TRIPOS>BOND
     1     1     2 2   
     2     2     3 1   
     3     2    10 1   
     4     3     4 1   
     5     3    20 1   
     6     4     5 1   
     7     4    21 1   
     8     4    22 1   
     9     5     6 2   
    10     5     7 1   
    11     6     9 1   
    12     7     8 1   
    13     7    23 1   
    14     8     9 2   
    15    10    11 1   
    16    10    18 2   
    17    11    12 1   
    18    11    16 2   
    19    12    13 1   
    20    12    24 1   
    21    12    25 1   
    22    13    14 1   
    23    13    26 1   
    24    13    27 1   
    25    14    15 1   
    26    14    28 1   
    27    14    29 1   
    28    15    16 1   
    29    15    30 1   
    30    15    31 1   
    31    16    17 1   
    32    17    18 1   
    33    18    19 1   
    34    19    20 2   
    35    20    32 1   
@<TRIPOS>SUBSTRUCTURE
     1 1CE         1 TEMP              0 ****  ****    0 ROOT
