@<TRIPOS>MOLECULE
1CE
   32    35     1     0     0
SMALL
No Charge or Current Charge


@<TRIPOS>ATOM
      1 O20          0.6870    -1.4070     1.0060 o          1 1CE      -0.512000
      2 C12          0.4690    -0.2140     0.8460 c          1 1CE       0.585600
      3 N7           1.4610     0.7470     1.0390 n          1 1CE      -0.351300
      4 C6           2.8180     0.3010     1.4640 c3         1 1CE       0.066700
      5 C3           3.5900    -0.4050     0.3730 cc         1 1CE       0.381800
      6 N2           4.4510    -1.3890     0.5310 nd         1 1CE      -0.366000
      7 N4           3.5460    -0.1290    -0.9640 na         1 1CE      -0.210700
      8 N5           4.3810    -0.9530    -1.6450 nc         1 1CE      -0.196800
      9 N1           4.9170    -1.7070    -0.7240 nd         1 1CE      -0.038000
     10 C11         -0.8210     0.3600     0.4280 cc         1 1CE      -0.223600
     11 C13         -2.0240    -0.3740     0.1510 cc         1 1CE      -0.028300
     12 C16         -2.1400    -1.8850     0.2600 c6         1 1CE      -0.016100
     13 C17         -3.6180    -2.3550     0.1790 c6         1 1CE      -0.074400
     14 C18         -4.3970    -1.6060    -0.9280 c6         1 1CE      -0.072400
     15 C19         -4.4390    -0.0860    -0.6390 c6         1 1CE      -0.003100
     16 C14         -3.0670     0.4270    -0.2570 cd         1 1CE      -0.218300
     17 S15         -2.6310     2.1440    -0.2850 ss         1 1CE       0.278000
     18 C10         -0.9950     1.7090     0.2450 cd         1 1CE       0.047400
     19 N9           0.0330     2.6220     0.4620 nd         1 1CE      -0.579100
     20 C8           1.1940     2.0960     0.8540 cc         1 1CE       0.487800
     21 H6           3.4090     1.1610     1.8020 h1         1 1CE       0.091200
     22 H6A          2.7210    -0.3780     2.3210 h1         1 1CE       0.091200
     23 HN4          2.9860     0.5780    -1.4250 hn         1 1CE       0.388000
     24 H16         -1.5640    -2.3610    -0.5440 hc         1 1CE       0.066700
     25 H16A        -1.7160    -2.2490     1.2050 hc         1 1CE       0.066700
     26 H17         -3.6530    -3.4380    -0.0000 hc         1 1CE       0.045700
     27 H17A        -4.1100    -2.1850     1.1470 hc         1 1CE       0.045700
     28 H18         -3.9180    -1.7850    -1.9010 hc         1 1CE       0.045700
     29 H18A        -5.4200    -1.9990    -1.0050 hc         1 1CE       0.045700
     30 H19         -4.8250     0.4480    -1.5180 hc         1 1CE       0.052700
     31 H19A        -5.1470     0.1100     0.1780 hc         1 1CE       0.052700
     32 H8           2.0380     2.7490     1.0440 h5         1 1CE       0.050800
@<TRIPOS>BOND
     1     1     2 2   
     2     2     3 1   
     3     2    10 1   
     4     3     4 1   
     5     3    20 1   
     6     4     5 1   
     7     4    21 1   
     8     4    22 1   
     9     5     6 2   
    10     5     7 1   
    11     6     9 1   
    12     7     8 1   
    13     7    23 1   
    14     8     9 2   
    15    10    11 1   
    16    10    18 2   
    17    11    12 1   
    18    11    16 2   
    19    12    13 1   
    20    12    24 1   
    21    12    25 1   
    22    13    14 1   
    23    13    26 1   
    24    13    27 1   
    25    14    15 1   
    26    14    28 1   
    27    14    29 1   
    28    15    16 1   
    29    15    30 1   
    30    15    31 1   
    31    16    17 1   
    32    17    18 1   
    33    18    19 1   
    34    19    20 2   
    35    20    32 1   
@<TRIPOS>SUBSTRUCTURE
     1 1CE         1 TEMP              0 ****  ****    0 ROOT
