@<TRIPOS>MOLECULE
1CF
   30    30     1     0     0
SMALL
No Charge or Current Charge


@<TRIPOS>ATOM
      1 C4           2.4450     0.5230     0.0300 c6         1 1CF       0.147300
      2 C5           1.3730     1.4540    -0.6400 c6         1 1CF       0.146300
      3 C6           1.5880     2.9630    -0.3550 c3         1 1CF      -0.091100
      4 C11         -4.1170    -0.0670    -0.1770 c3         1 1CF       0.161600
      5 C12         -2.7230     0.3540    -0.7150 c3         1 1CF       0.165600
      6 C3           2.0630    -0.9560    -0.3250 c6         1 1CF       0.189300
      7 O11         -4.2740     0.2630     1.2170 oh         1 1CF      -0.704000
      8 C1          -0.3560    -0.2250    -0.5230 c6         1 1CF       0.367300
      9 C2           0.6090    -1.2620     0.1420 c6         1 1CF       0.110300
     10 O2           0.2450    -2.6360    -0.1610 oh         1 1CF      -0.733000
     11 O3           2.9740    -1.9150     0.2410 oh         1 1CF      -0.639000
     12 O4           2.4970     0.7170     1.4670 oh         1 1CF      -0.689000
     13 O5           0.0460     1.1170    -0.1730 os         1 1CF      -0.469000
     14 O1          -1.7060    -0.4530    -0.0850 os         1 1CF      -0.438000
     15 H4           3.4270     0.7440    -0.4160 h1         1 1CF       0.045700
     16 H5           1.4080     1.3120    -1.7310 h1         1 1CF       0.033700
     17 H62          2.5900     3.2820    -0.6630 hc         1 1CF       0.047700
     18 H61          0.8640     3.5690    -0.9120 hc         1 1CF       0.047700
     19 H63          1.4680     3.1980     0.7090 hc         1 1CF       0.047700
     20 H11         -4.8860     0.4460    -0.7700 h1         1 1CF       0.023700
     21 H12         -4.2480    -1.1460    -0.3340 h1         1 1CF       0.023700
     22 H21         -2.7050     0.2070    -1.8030 h1         1 1CF       0.039700
     23 H22         -2.5620     1.4210    -0.5150 h1         1 1CF       0.039700
     24 H3           2.0870    -1.0500    -1.4210 h1         1 1CF       0.032700
     25 H6          -5.1540    -0.0830     1.4960 ho         1 1CF       0.500000
     26 H1          -0.3120    -0.3420    -1.6160 h2         1 1CF       0.019700
     27 H2           0.5580    -1.0950     1.2290 h1         1 1CF       0.088700
     28 HO2         -0.7300    -2.7000    -0.0100 ho         1 1CF       0.524000
     29 HO3          2.4450    -2.7450     0.2880 ho         1 1CF       0.459000
     30 HO4          2.8490     1.6230     1.6230 ho         1 1CF       0.503000
@<TRIPOS>BOND
     1     1     2 1   
     2     1     6 1   
     3     1    12 1   
     4     1    15 1   
     5     2     3 1   
     6     2    13 1   
     7     2    16 1   
     8     3    17 1   
     9     3    18 1   
    10     3    19 1   
    11     4     5 1   
    12     4     7 1   
    13     4    20 1   
    14     4    21 1   
    15     5    14 1   
    16     5    22 1   
    17     5    23 1   
    18     6     9 1   
    19     6    11 1   
    20     6    24 1   
    21     7    25 1   
    22     8     9 1   
    23     8    13 1   
    24     8    14 1   
    25     8    26 1   
    26     9    10 1   
    27     9    27 1   
    28    10    28 1   
    29    11    29 1   
    30    12    30 1   
@<TRIPOS>SUBSTRUCTURE
     1 1CF         1 TEMP              0 ****  ****    0 ROOT
