@<TRIPOS>MOLECULE
1CF
   30    30     1     0     0
SMALL
abcg2


@<TRIPOS>ATOM
      1 C4           2.3650     0.5070     0.0060 c6         1 1CF       0.147300
      2 C5           1.3360     1.4530    -0.6220 c6         1 1CF       0.146300
      3 C6           1.6280     2.9150    -0.3560 c3         1 1CF      -0.091100
      4 C11         -4.0370    -0.1390    -0.2140 c3         1 1CF       0.161600
      5 C12         -2.6940     0.3680    -0.6700 c3         1 1CF       0.165600
      6 C3           1.9480    -0.9260    -0.2900 c6         1 1CF       0.189300
      7 O11         -4.2410     0.2170     1.1340 oh         1 1CF      -0.704000
      8 C1          -0.3980    -0.1240    -0.4530 c6         1 1CF       0.367300
      9 C2           0.5160    -1.1750     0.1750 c6         1 1CF       0.110300
     10 O2           0.1590    -2.4730    -0.2370 oh         1 1CF      -0.733000
     11 O3           2.8620    -1.8080     0.3070 oh         1 1CF      -0.639000
     12 O4           2.4600     0.6680     1.4000 oh         1 1CF      -0.689000
     13 O5           0.0400     1.1670    -0.1260 os         1 1CF      -0.469000
     14 O1          -1.6700    -0.3010     0.0450 os         1 1CF      -0.438000
     15 H4           3.3320     0.6950    -0.4830 h1         1 1CF       0.045700
     16 H5           1.3640     1.2860    -1.7110 h1         1 1CF       0.033700
     17 H62          2.6240     3.1710    -0.7170 hc         1 1CF       0.047700
     18 H61          0.9140     3.5530    -0.8760 hc         1 1CF       0.047700
     19 H63          1.5770     3.1540     0.7080 hc         1 1CF       0.047700
     20 H11         -4.7930     0.3050    -0.8740 h1         1 1CF       0.023700
     21 H12         -4.0850    -1.2260    -0.3620 h1         1 1CF       0.023700
     22 H21         -2.5980     0.1750    -1.7460 h1         1 1CF       0.039700
     23 H22         -2.6320     1.4520    -0.5250 h1         1 1CF       0.039700
     24 H3           1.9630    -1.0330    -1.3870 h1         1 1CF       0.032700
     25 H6          -5.1030    -0.1140     1.4030 ho         1 1CF       0.500000
     26 H1          -0.3870    -0.2470    -1.5540 h2         1 1CF       0.019700
     27 H2           0.4640    -1.0740     1.2680 h1         1 1CF       0.088700
     28 HO2         -0.6680    -2.7150     0.1910 ho         1 1CF       0.524000
     29 HO3          2.6000    -2.7060     0.0800 ho         1 1CF       0.459000
     30 HO4          2.9180     1.4930     1.5830 ho         1 1CF       0.503000
@<TRIPOS>BOND
     1     1     2 1   
     2     1     6 1   
     3     1    12 1   
     4     1    15 1   
     5     2     3 1   
     6     2    13 1   
     7     2    16 1   
     8     3    17 1   
     9     3    18 1   
    10     3    19 1   
    11     4     5 1   
    12     4     7 1   
    13     4    20 1   
    14     4    21 1   
    15     5    14 1   
    16     5    22 1   
    17     5    23 1   
    18     6     9 1   
    19     6    11 1   
    20     6    24 1   
    21     7    25 1   
    22     8     9 1   
    23     8    13 1   
    24     8    14 1   
    25     8    26 1   
    26     9    10 1   
    27     9    27 1   
    28    10    28 1   
    29    11    29 1   
    30    12    30 1   
@<TRIPOS>SUBSTRUCTURE
     1 1CF         1 TEMP              0 ****  ****    0 ROOT
