@<TRIPOS>MOLECULE
1CG
   51    54     1     0     0
SMALL
bcc


@<TRIPOS>ATOM
      1 C4          -3.4690     2.1170     0.9650 ca         1 1CG      -0.129000
      2 C5          -2.1100     2.0150     1.2510 ca         1 1CG       0.106600
      3 C6          -1.2190     2.9260     0.6910 ca         1 1CG      -0.129000
      4 C13         -2.2660    -0.7260    -0.2370 cc         1 1CG       0.549600
      5 C15          1.4310    -1.7970    -0.2400 ca         1 1CG      -0.200300
      6 C17          3.5290    -1.0330    -1.1940 ca         1 1CG      -0.191500
      7 C20          2.1430    -2.3490     0.8200 ca         1 1CG      -0.081000
      8 C22          6.5550    -0.9850    -0.7970 c          1 1CG       0.509100
      9 C28         -4.3170    -1.2000    -0.1330 ca         1 1CG       0.052400
     10 O26          8.9020    -0.7470    -0.9710 o          1 1CG      -0.790300
     11 C23          8.0040    -1.2060    -0.2600 c          1 1CG       0.879600
     12 O25          8.0910    -1.8200     0.8200 o          1 1CG      -0.790300
     13 O24          6.3250    -0.3740    -1.8250 o          1 1CG      -0.608100
     14 C18          4.2370    -1.5930    -0.1270 ca         1 1CG       0.128600
     15 C16          2.1480    -1.1450    -1.2360 ca         1 1CG      -0.081000
     16 C19          3.5220    -2.2530     0.8760 ca         1 1CG      -0.191500
     17 C14         -0.0660    -1.9010    -0.3220 c3         1 1CG       0.018900
     18 C12         -0.8040    -0.5810    -0.0290 c3         1 1CG      -0.196200
     19 S9          -0.4560    -0.0540     1.6910 s6         1 1CG       1.215900
     20 O10         -0.5930    -1.1950     2.5780 o          1 1CG      -0.568800
     21 O11          0.7910     0.6830     1.6510 o          1 1CG      -0.568800
     22 N8          -1.6720     0.9930     2.1260 nu         1 1CG      -0.683500
     23 C3          -3.9410     3.1090     0.1220 ca         1 1CG      -0.146500
     24 C2          -3.0340     3.9830    -0.4450 ca         1 1CG       0.119900
     25 F7          -3.4800     4.9360    -1.2780 f          1 1CG      -0.144900
     26 C1          -1.6820     3.9070    -0.1730 ca         1 1CG      -0.146500
     27 O30         -2.7920    -0.1330    -1.3270 os         1 1CG      -0.259700
     28 C29         -4.1160    -0.4270    -1.2710 ca         1 1CG       0.028100
     29 C34         -5.1220    -0.0520    -2.1370 ca         1 1CG      -0.107000
     30 C33         -6.3910    -0.5040    -1.8030 ca         1 1CG      -0.115000
     31 C32         -6.6210    -1.2840    -0.6620 ca         1 1CG      -0.148000
     32 C31         -5.5930    -1.6450     0.1930 ca         1 1CG      -0.067000
     33 N27         -3.0960    -1.3710     0.4980 nd         1 1CG      -0.580100
     34 H1          -4.1710     1.4200     1.4050 ha         1 1CG       0.158500
     35 H2          -0.1660     2.8890     0.9260 ha         1 1CG       0.158500
     36 H3           4.0430    -0.5230    -1.9920 ha         1 1CG       0.150500
     37 H4           1.6200    -2.8660     1.6130 ha         1 1CG       0.118500
     38 H6           6.0220    -2.0000     0.8150 hn         1 1CG       0.351500
     39 H7           1.6210    -0.7110    -2.0780 ha         1 1CG       0.118500
     40 H8           4.0530    -2.6960     1.7100 ha         1 1CG       0.150500
     41 H9          -0.3560    -2.1890    -1.3350 hc         1 1CG       0.061700
     42 H10         -0.4450    -2.6800     0.3410 hc         1 1CG       0.061700
     43 H11         -0.4210     0.2170    -0.6680 h1         1 1CG       0.126700
     44 H12         -2.4210     0.5040     2.6030 hn         1 1CG       0.445800
     45 H13         -4.9970     3.1880    -0.0970 ha         1 1CG       0.153000
     46 H14         -0.9930     4.6130    -0.6170 ha         1 1CG       0.153000
     47 H15         -4.9400     0.5540    -3.0140 ha         1 1CG       0.155000
     48 H16         -7.2260    -0.2450    -2.4410 ha         1 1CG       0.134000
     49 H17         -7.6300    -1.6100    -0.4460 ha         1 1CG       0.134000
     50 H18         -5.7720    -2.2460     1.0750 ha         1 1CG       0.153000
     51 N21          5.6210    -1.5470     0.0040 ns         1 1CG      -0.469100
@<TRIPOS>BOND
     1     1     2 ar  
     2     1    23 ar  
     3     1    34 1   
     4     2     3 ar  
     5     2    22 1   
     6     3    26 ar  
     7     3    35 1   
     8     4    18 1   
     9     4    27 1   
    10     4    33 2   
    11     5     7 ar  
    12     5    15 ar  
    13     5    17 1   
    14     6    14 ar  
    15     6    15 ar  
    16     6    36 1   
    17     7    16 ar  
    18     7    37 1   
    19     8    11 1   
    20     8    13 2   
    21     8    51 1   
    22     9    28 ar  
    23     9    32 ar  
    24     9    33 1   
    25    10    11 1   
    26    11    12 1   
    27    14    16 ar  
    28    14    51 1   
    29    15    39 1   
    30    16    40 1   
    31    17    18 1   
    32    17    41 1   
    33    17    42 1   
    34    18    19 1   
    35    18    43 1   
    36    19    20 2   
    37    19    21 2   
    38    19    22 1   
    39    22    44 1   
    40    23    24 ar  
    41    23    45 1   
    42    24    25 1   
    43    24    26 ar  
    44    26    46 1   
    45    27    28 1   
    46    28    29 ar  
    47    29    30 ar  
    48    29    47 1   
    49    30    31 ar  
    50    30    48 1   
    51    31    32 ar  
    52    31    49 1   
    53    32    50 1   
    54    38    51 1   
@<TRIPOS>SUBSTRUCTURE
     1 1CG         1 TEMP              0 ****  ****    0 ROOT
