@<TRIPOS>MOLECULE
1CG
   51    54     1     0     0
SMALL
No Charge or Current Charge


@<TRIPOS>ATOM
      1 C4          -3.4620     2.5130     1.1490 ca         1 1CG      -0.111000
      2 C5          -2.1250     2.0770     1.1090 ca         1 1CG       0.245000
      3 C6          -1.2170     2.7240     0.2450 ca         1 1CG      -0.111000
      4 C13         -2.2920    -0.9000    -0.2330 cc         1 1CG       0.549600
      5 C15          1.4520    -1.9280    -0.1940 ca         1 1CG      -0.200300
      6 C17          3.5080    -1.0120    -1.1390 ca         1 1CG      -0.173500
      7 C20          2.2040    -2.5160     0.8390 ca         1 1CG      -0.063000
      8 C22          6.6380    -0.8360    -0.7710 c          1 1CG       0.442100
      9 C28         -4.3270    -1.4310    -0.2560 ca         1 1CG       0.052400
     10 O26          9.0780    -0.4880    -0.7750 o          1 1CG      -0.685000
     11 C23          8.1380    -1.0080    -0.1740 c          1 1CG       0.669000
     12 O25          8.2840    -1.6540     0.8620 o          1 1CG      -0.685000
     13 O24          6.3840    -0.2100    -1.8070 o          1 1CG      -0.608100
     14 C18          4.2660    -1.5970    -0.1020 ca         1 1CG       0.036000
     15 C16          2.1130    -1.1780    -1.1840 ca         1 1CG      -0.063000
     16 C19          3.5980    -2.3490     0.8830 ca         1 1CG      -0.173500
     17 C14         -0.0610    -2.1030    -0.2470 c3         1 1CG       0.018900
     18 C12         -0.8350    -0.7870     0.0250 c3         1 1CG      -0.307000
     19 S9          -0.5720    -0.1440     1.6740 s6         1 1CG       1.185100
     20 O10         -0.8690    -1.1860     2.6580 o          1 1CG      -0.498000
     21 O11          0.7020     0.5760     1.7270 o          1 1CG      -0.498000
     22 N8          -1.7540     1.0040     1.9190 nu         1 1CG      -0.877100
     23 C3          -3.8960     3.5710     0.3280 ca         1 1CG      -0.128500
     24 C2          -2.9870     4.2010    -0.5340 ca         1 1CG       0.155000
     25 F7          -3.4010     5.2160    -1.3240 f          1 1CG      -0.180000
     26 C1          -1.6490     3.7840    -0.5760 ca         1 1CG      -0.128500
     27 O30         -2.8470    -0.0110    -1.1440 os         1 1CG      -0.259700
     28 C29         -4.1480    -0.3810    -1.1090 ca         1 1CG       0.028100
     29 C34         -5.2030     0.1990    -1.8230 ca         1 1CG      -0.089000
     30 C33         -6.4930    -0.3430    -1.6400 ca         1 1CG      -0.097000
     31 C32         -6.6890    -1.4350    -0.7600 ca         1 1CG      -0.130000
     32 C31         -5.5970    -1.9910    -0.0560 ca         1 1CG      -0.049000
     33 N27         -3.1290    -1.7940     0.3200 nd         1 1CG      -0.580100
     34 H1          -4.1740     2.0250     1.8090 ha         1 1CG       0.140500
     35 H2          -0.1760     2.4220     0.2020 ha         1 1CG       0.140500
     36 H3           3.9790    -0.4240    -1.9200 ha         1 1CG       0.132500
     37 H4           1.7100    -3.1000     1.6130 ha         1 1CG       0.100500
     38 H6           6.0650    -1.9410     0.8230 hn         1 1CG       0.185000
     39 H7           1.5460    -0.7210    -1.9920 ha         1 1CG       0.100500
     40 H8           4.1620    -2.8090     1.6910 ha         1 1CG       0.132500
     41 H9          -0.3400    -2.4750    -1.2420 hc         1 1CG       0.061700
     42 H10         -0.3880    -2.8790     0.4590 hc         1 1CG       0.061700
     43 H11         -0.4470    -0.0040    -0.6290 h1         1 1CG       0.126700
     44 H12         -2.4750     0.5410     2.4590 hn         1 1CG       0.501000
     45 H13         -4.9320     3.8990     0.3570 ha         1 1CG       0.135000
     46 H14         -0.9480     4.2810    -1.2430 ha         1 1CG       0.135000
     47 H15         -5.0320     1.0370    -2.4940 ha         1 1CG       0.137000
     48 H16         -7.3400     0.0800    -2.1770 ha         1 1CG       0.116000
     49 H17         -7.6850    -1.8490    -0.6230 ha         1 1CG       0.116000
     50 H18         -5.7340    -2.8270     0.6250 ha         1 1CG       0.135000
     51 N21          5.6780    -1.4740     0.0120 ns         1 1CG      -0.143000
@<TRIPOS>BOND
     1     1     2 ar  
     2     1    23 ar  
     3     1    34 1   
     4     2     3 ar  
     5     2    22 1   
     6     3    26 ar  
     7     3    35 1   
     8     4    18 1   
     9     4    27 1   
    10     4    33 2   
    11     5     7 ar  
    12     5    15 ar  
    13     5    17 1   
    14     6    14 ar  
    15     6    15 ar  
    16     6    36 1   
    17     7    16 ar  
    18     7    37 1   
    19     8    11 1   
    20     8    13 2   
    21     8    51 1   
    22     9    28 ar  
    23     9    32 ar  
    24     9    33 1   
    25    10    11 1   
    26    11    12 1   
    27    14    16 ar  
    28    14    51 1   
    29    15    39 1   
    30    16    40 1   
    31    17    18 1   
    32    17    41 1   
    33    17    42 1   
    34    18    19 1   
    35    18    43 1   
    36    19    20 2   
    37    19    21 2   
    38    19    22 1   
    39    22    44 1   
    40    23    24 ar  
    41    23    45 1   
    42    24    25 1   
    43    24    26 ar  
    44    26    46 1   
    45    27    28 1   
    46    28    29 ar  
    47    29    30 ar  
    48    29    47 1   
    49    30    31 ar  
    50    30    48 1   
    51    31    32 ar  
    52    31    49 1   
    53    32    50 1   
    54    38    51 1   
@<TRIPOS>SUBSTRUCTURE
     1 1CG         1 TEMP              0 ****  ****    0 ROOT
