@<TRIPOS>MOLECULE
1CH
   45    47     1     0     0
SMALL
No Charge or Current Charge


@<TRIPOS>ATOM
      1 O17         -2.2250    -3.8090    -1.9230 o          1 1CH      -0.726000
      2 C15         -1.8770    -2.7080    -2.3330 c          1 1CH       0.713000
      3 O16         -1.7610    -2.4480    -3.5260 o          1 1CH      -0.726000
      4 C14         -1.5010    -1.6000    -1.2770 c3         1 1CH       0.068500
      5 C18         -2.5130    -0.4260    -1.3340 c3         1 1CH      -0.035100
      6 C19         -2.3660     0.5690    -0.1860 ca         1 1CH      -0.038300
      7 C24         -2.8030     0.2250     1.1090 ca         1 1CH      -0.109500
      8 C23         -2.6870     1.1450     2.1650 ca         1 1CH      -0.119000
      9 C22         -2.1290     2.4130     1.9350 ca         1 1CH      -0.137000
     10 C21         -1.6880     2.7620     0.6480 ca         1 1CH      -0.119000
     11 C20         -1.8110     1.8440    -0.4100 ca         1 1CH      -0.109500
     12 N13         -0.1010    -1.0880    -1.4340 nu         1 1CH      -0.839400
     13 C10          0.7520    -0.7170    -0.4000 ce         1 1CH       0.683800
     14 N9           0.7830    -1.4010     0.6990 n2         1 1CH      -0.660900
     15 C8           1.5640    -0.9180     1.8560 c6         1 1CH       0.165200
     16 C12          0.6940     0.1220     2.6230 c3         1 1CH      -0.079100
     17 C11          1.8020    -2.1310     2.8000 c3         1 1CH      -0.079100
     18 C7           2.9200    -0.2950     1.4210 c6         1 1CH      -0.059100
     19 C2           2.7400     0.6690     0.2540 ca         1 1CH      -0.049300
     20 C3           1.6770     0.4460    -0.6460 ca         1 1CH      -0.157900
     21 C4           1.4930     1.3520    -1.7190 ca         1 1CH      -0.081000
     22 C5           2.3710     2.4350    -1.8950 ca         1 1CH      -0.132000
     23 C6           3.4370     2.6330    -1.0040 ca         1 1CH      -0.115000
     24 C1           3.6210     1.7510     0.0710 ca         1 1CH      -0.122000
     25 H2          -1.6050    -2.0780    -0.2940 h1         1 1CH       0.073700
     26 H3          -2.4210     0.0850    -2.3000 hc         1 1CH       0.055200
     27 H4          -3.5270    -0.8440    -1.3150 hc         1 1CH       0.055200
     28 H5          -3.2350    -0.7550     1.2950 ha         1 1CH       0.111000
     29 H6          -3.0270     0.8740     3.1620 ha         1 1CH       0.095000
     30 H7          -2.0350     3.1240     2.7530 ha         1 1CH       0.093000
     31 H8          -1.2550     3.7430     0.4680 ha         1 1CH       0.095000
     32 H9          -1.4740     2.1270    -1.4040 ha         1 1CH       0.111000
     33 H10          0.1400    -0.6870    -2.3340 hn         1 1CH       0.458000
     34 H11         -0.2620    -0.3100     2.9430 hc         1 1CH       0.031367
     35 H12          1.2070     0.4840     3.5230 hc         1 1CH       0.031367
     36 H13          0.4690     0.9980     2.0030 hc         1 1CH       0.031367
     37 H14          2.3790    -2.9190     2.3010 hc         1 1CH       0.031367
     38 H15          2.3600    -1.8330     3.6960 hc         1 1CH       0.031367
     39 H16          0.8560    -2.5760     3.1330 hc         1 1CH       0.031367
     40 H17          3.3950     0.2110     2.2720 hc         1 1CH       0.053700
     41 H18          3.6120    -1.0900     1.1100 hc         1 1CH       0.053700
     42 H19          0.6690     1.2340    -2.4190 ha         1 1CH       0.121000
     43 H20          2.2220     3.1240    -2.7230 ha         1 1CH       0.100000
     44 H21          4.1160     3.4720    -1.1430 ha         1 1CH       0.097000
     45 H22          4.4440     1.9090     0.7640 ha         1 1CH       0.101000
@<TRIPOS>BOND
     1     1     2 1   
     2     2     3 1   
     3     2     4 1   
     4     4     5 1   
     5     4    12 1   
     6     4    25 1   
     7     5     6 1   
     8     5    26 1   
     9     5    27 1   
    10     6     7 ar  
    11     6    11 ar  
    12     7     8 ar  
    13     7    28 1   
    14     8     9 ar  
    15     8    29 1   
    16     9    10 ar  
    17     9    30 1   
    18    10    11 ar  
    19    10    31 1   
    20    11    32 1   
    21    12    13 1   
    22    12    33 1   
    23    13    14 2   
    24    13    20 1   
    25    14    15 1   
    26    15    16 1   
    27    15    17 1   
    28    15    18 1   
    29    16    34 1   
    30    16    35 1   
    31    16    36 1   
    32    17    37 1   
    33    17    38 1   
    34    17    39 1   
    35    18    19 1   
    36    18    40 1   
    37    18    41 1   
    38    19    20 ar  
    39    19    24 ar  
    40    20    21 ar  
    41    21    22 ar  
    42    21    42 1   
    43    22    23 ar  
    44    22    43 1   
    45    23    24 ar  
    46    23    44 1   
    47    24    45 1   
@<TRIPOS>SUBSTRUCTURE
     1 1CH         1 TEMP              0 ****  ****    0 ROOT
