@<TRIPOS>MOLECULE
1CH
   45    47     1     0     0
SMALL
bcc


@<TRIPOS>ATOM
      1 O17         -1.6200    -3.6010    -0.4670 o          1 1CH      -0.831300
      2 C15         -1.0330    -2.6200    -0.9680 c          1 1CH       0.923600
      3 O16         -0.2430    -2.6240    -1.9280 o          1 1CH      -0.831300
      4 C14         -1.3910    -1.2450    -0.3490 c3         1 1CH       0.068500
      5 C18         -2.7510    -0.7830    -0.8890 c3         1 1CH      -0.035100
      6 C19         -3.2420     0.4690    -0.2200 ca         1 1CH      -0.038300
      7 C24         -3.8920     0.3990     1.0110 ca         1 1CH      -0.127500
      8 C23         -4.3200     1.5490     1.6610 ca         1 1CH      -0.137000
      9 C22         -4.1030     2.7960     1.0870 ca         1 1CH      -0.155000
     10 C21         -3.4580     2.8790    -0.1410 ca         1 1CH      -0.137000
     11 C20         -3.0310     1.7250    -0.7850 ca         1 1CH      -0.127500
     12 N13         -0.4070    -0.2240    -0.6010 nu         1 1CH      -0.784200
     13 C10          0.8140    -0.2920     0.0080 ce         1 1CH       0.683800
     14 N9           1.0260    -1.1260     0.9530 n2         1 1CH      -0.660900
     15 C8           2.3110    -1.1070     1.6370 c6         1 1CH       0.165200
     16 C12          2.2720    -0.0770     2.7710 c3         1 1CH      -0.079100
     17 C11          2.5340    -2.4940     2.2310 c3         1 1CH      -0.079100
     18 C7           3.4490    -0.7890     0.6590 c6         1 1CH      -0.059100
     19 C2           3.1510     0.4590    -0.1100 ca         1 1CH      -0.049300
     20 C3           1.8170     0.7030    -0.4460 ca         1 1CH      -0.157900
     21 C4           1.4760     1.8670    -1.1300 ca         1 1CH      -0.099000
     22 C5           2.4580     2.7710    -1.5070 ca         1 1CH      -0.150000
     23 C6           3.7860     2.5200    -1.1910 ca         1 1CH      -0.133000
     24 C1           4.1270     1.3700    -0.4890 ca         1 1CH      -0.140000
     25 H2          -1.4770    -1.3670     0.7330 h1         1 1CH       0.073700
     26 H3          -2.6800    -0.6280    -1.9700 hc         1 1CH       0.055200
     27 H4          -3.4670    -1.5920    -0.7340 hc         1 1CH       0.055200
     28 H5          -4.0670    -0.5690     1.4660 ha         1 1CH       0.129000
     29 H6          -4.8280     1.4720     2.6140 ha         1 1CH       0.113000
     30 H7          -4.4340     3.6950     1.5900 ha         1 1CH       0.111000
     31 H8          -3.2860     3.8450    -0.5980 ha         1 1CH       0.113000
     32 H9          -2.5320     1.8010    -1.7440 ha         1 1CH       0.129000
     33 H10         -0.3750     0.0840    -1.5600 hn         1 1CH       0.402800
     34 H11          1.4270    -0.2730     3.4330 hc         1 1CH       0.031367
     35 H12          3.1830    -0.1190     3.3700 hc         1 1CH       0.031367
     36 H13          2.1660     0.9410     2.3910 hc         1 1CH       0.031367
     37 H14          2.5340    -3.2570     1.4500 hc         1 1CH       0.031367
     38 H15          3.4890    -2.5460     2.7580 hc         1 1CH       0.031367
     39 H16          1.7430    -2.7400     2.9410 hc         1 1CH       0.031367
     40 H17          4.4010    -0.7020     1.1870 hc         1 1CH       0.053700
     41 H18          3.5530    -1.6260    -0.0430 hc         1 1CH       0.053700
     42 H19          0.4400     2.0900    -1.3540 ha         1 1CH       0.139000
     43 H20          2.1850     3.6740    -2.0370 ha         1 1CH       0.118000
     44 H21          4.5560     3.2240    -1.4790 ha         1 1CH       0.115000
     45 H22          5.1620     1.1840    -0.2270 ha         1 1CH       0.119000
@<TRIPOS>BOND
     1     1     2 1   
     2     2     3 1   
     3     2     4 1   
     4     4     5 1   
     5     4    12 1   
     6     4    25 1   
     7     5     6 1   
     8     5    26 1   
     9     5    27 1   
    10     6     7 ar  
    11     6    11 ar  
    12     7     8 ar  
    13     7    28 1   
    14     8     9 ar  
    15     8    29 1   
    16     9    10 ar  
    17     9    30 1   
    18    10    11 ar  
    19    10    31 1   
    20    11    32 1   
    21    12    13 1   
    22    12    33 1   
    23    13    14 2   
    24    13    20 1   
    25    14    15 1   
    26    15    16 1   
    27    15    17 1   
    28    15    18 1   
    29    16    34 1   
    30    16    35 1   
    31    16    36 1   
    32    17    37 1   
    33    17    38 1   
    34    17    39 1   
    35    18    19 1   
    36    18    40 1   
    37    18    41 1   
    38    19    20 ar  
    39    19    24 ar  
    40    20    21 ar  
    41    21    22 ar  
    42    21    42 1   
    43    22    23 ar  
    44    22    43 1   
    45    23    24 ar  
    46    23    44 1   
    47    24    45 1   
@<TRIPOS>SUBSTRUCTURE
     1 1CH         1 TEMP              0 ****  ****    0 ROOT
