@<TRIPOS>MOLECULE
1CI
   19    20     1     0     0
SMALL
No Charge or Current Charge


@<TRIPOS>ATOM
      1 C11         -0.1230    -1.1980    -0.2710 ca         1 1CI      -0.111500
      2 C10         -1.5300    -1.2120    -0.2950 ca         1 1CI      -0.086000
      3 C9          -2.2490    -0.0330    -0.0420 ca         1 1CI       0.113000
      4 Cl          -4.0070    -0.0520    -0.0720 cl         1 1CI      -0.189000
      5 C8          -1.5650     1.1610     0.2350 ca         1 1CI      -0.086000
      6 C7          -0.1590     1.1770     0.2590 ca         1 1CI      -0.111500
      7 C6           0.5750    -0.0020     0.0060 ca         1 1CI       0.008800
      8 N1           1.9740     0.0140     0.0320 na         1 1CI      -0.078300
      9 C5           2.7570     1.0670    -0.3740 cc         1 1CI      -0.222000
     10 C4           4.0390     0.6240    -0.1560 cd         1 1CI       0.234900
     11 N3           4.0430    -0.6610     0.3710 nd         1 1CI      -0.667000
     12 C2           2.7670    -1.0170     0.4780 cc         1 1CI       0.402400
     13 H11          0.4160    -2.1190    -0.4800 ha         1 1CI       0.132000
     14 H10         -2.0630    -2.1350    -0.5120 ha         1 1CI       0.136000
     15 H8          -2.1240     2.0720     0.4330 ha         1 1CI       0.136000
     16 H7           0.3560     2.1080     0.4850 ha         1 1CI       0.132000
     17 H5           2.3780     1.9980    -0.7750 h4         1 1CI       0.160000
     18 H4           4.9620     1.1580    -0.3500 h4         1 1CI       0.041100
     19 H2           2.3760    -1.9520     0.8610 h5         1 1CI       0.057100
@<TRIPOS>BOND
     1     1     2 ar  
     2     1     7 ar  
     3     1    13 1   
     4     2     3 ar  
     5     2    14 1   
     6     3     4 1   
     7     3     5 ar  
     8     5     6 ar  
     9     5    15 1   
    10     6     7 ar  
    11     6    16 1   
    12     7     8 1   
    13     8     9 1   
    14     8    12 1   
    15     9    10 2   
    16     9    17 1   
    17    10    11 1   
    18    10    18 1   
    19    11    12 2   
    20    12    19 1   
@<TRIPOS>SUBSTRUCTURE
     1 1CI         1 TEMP              0 ****  ****    0 ROOT
