@<TRIPOS>MOLECULE
1CI
   19    20     1     0     0
SMALL
bcc


@<TRIPOS>ATOM
      1 C11         -0.1330    -1.1770    -0.2960 ca         1 1CI      -0.129500
      2 C10         -1.5180    -1.2000    -0.3100 ca         1 1CI      -0.104000
      3 C9          -2.2220    -0.0360    -0.0410 ca         1 1CI       0.021400
      4 CL          -3.9520    -0.0590    -0.0720 cl         1 1CI      -0.097400
      5 C8          -1.5590     1.1450     0.2510 ca         1 1CI      -0.104000
      6 C7          -0.1740     1.1590     0.2830 ca         1 1CI      -0.129500
      7 C6           0.5400     0.0010     0.0070 ca         1 1CI       0.008800
      8 N1           1.9490     0.0190     0.0330 na         1 1CI      -0.129000
      9 C5           2.7660     1.0350    -0.3980 cc         1 1CI      -0.254600
     10 C4           4.0360     0.6030    -0.1640 cd         1 1CI       0.300200
     11 N3           4.0190    -0.6430     0.4010 nd         1 1CI      -0.667000
     12 C2           2.7600    -0.9630     0.5040 cc         1 1CI       0.402400
     13 H11          0.4140    -2.0780    -0.5400 ha         1 1CI       0.150000
     14 H10         -2.0390    -2.1170    -0.5470 ha         1 1CI       0.154000
     15 H8          -2.1110     2.0490     0.4680 ha         1 1CI       0.154000
     16 H7           0.3400     2.0760     0.5410 ha         1 1CI       0.150000
     17 H5           2.3810     1.9370    -0.8420 h4         1 1CI       0.178000
     18 H4           4.9580     1.1210    -0.3780 h4         1 1CI       0.041100
     19 H2           2.3690    -1.8750     0.9300 h5         1 1CI       0.057100
@<TRIPOS>BOND
     1     1     2 ar  
     2     1     7 ar  
     3     1    13 1   
     4     2     3 ar  
     5     2    14 1   
     6     3     4 1   
     7     3     5 ar  
     8     5     6 ar  
     9     5    15 1   
    10     6     7 ar  
    11     6    16 1   
    12     7     8 1   
    13     8     9 1   
    14     8    12 1   
    15     9    10 2   
    16     9    17 1   
    17    10    11 1   
    18    10    18 1   
    19    11    12 2   
    20    12    19 1   
@<TRIPOS>SUBSTRUCTURE
     1 1CI         1 TEMP              0 ****  ****    0 ROOT
