@<TRIPOS>MOLECULE
1CJ
   26    27     1     0     0
SMALL
abcg2


@<TRIPOS>ATOM
      1 O1           1.3790    -1.7990     0.6600 oh         1 1CJ      -0.684000
      2 C1           1.4510    -0.7220    -0.2300 c3         1 1CJ       0.476500
      3 O2           2.5420     0.1090     0.0010 os         1 1CJ      -0.487000
      4 C9           3.8030    -0.4590    -0.3070 c3         1 1CJ       0.167600
      5 C10          4.8540     0.6250    -0.2350 c3         1 1CJ      -0.094100
      6 C2           0.2310     0.1390    -0.1710 cc         1 1CJ      -0.354800
      7 C8           0.1420     1.5310    -0.1990 cc         1 1CJ       0.421500
      8 N2          -1.1080     1.9700    -0.1550 nd         1 1CJ      -0.590100
      9 N1          -1.8510     0.8650    -0.1030 na         1 1CJ       0.321400
     10 C3          -1.0950    -0.2880    -0.1100 cd         1 1CJ      -0.071000
     11 C7          -3.2090     0.8620    -0.0520 cc         1 1CJ      -0.077000
     12 C6          -3.8640    -0.3260    -0.0110 cd         1 1CJ      -0.161000
     13 C5          -3.1330    -1.5410    -0.0180 cc         1 1CJ      -0.090000
     14 C4          -1.7700    -1.5280    -0.0640 cd         1 1CJ      -0.098000
     15 H1           1.1410    -1.4660     1.5350 ho         1 1CJ       0.454000
     16 H2           1.5440    -1.1980    -1.2170 h2         1 1CJ       0.064700
     17 H3           4.0470    -1.2680     0.3900 h1         1 1CJ       0.027700
     18 H4           3.7820    -0.8980    -1.3130 h1         1 1CJ       0.027700
     19 H5           4.6550     1.4190    -0.9550 hc         1 1CJ       0.042367
     20 H6           4.9040     1.0670     0.7610 hc         1 1CJ       0.042367
     21 H7           5.8340     0.2040    -0.4610 hc         1 1CJ       0.042367
     22 H8           0.9530     2.2410    -0.2510 h4         1 1CJ       0.057800
     23 H9          -3.6890     1.8290    -0.0500 h4         1 1CJ       0.160000
     24 H10         -4.9430    -0.3300     0.0300 ha         1 1CJ       0.133000
     25 H11         -3.6660    -2.4820     0.0160 ha         1 1CJ       0.124000
     26 H12         -1.1960    -2.4420    -0.0650 ha         1 1CJ       0.144000
@<TRIPOS>BOND
     1     1     2 1   
     2     1    15 1   
     3     2     3 1   
     4     2     6 1   
     5     2    16 1   
     6     3     4 1   
     7     4     5 1   
     8     4    17 1   
     9     4    18 1   
    10     5    19 1   
    11     5    20 1   
    12     5    21 1   
    13     6     7 1   
    14     6    10 2   
    15     7     8 2   
    16     7    22 1   
    17     8     9 1   
    18     9    10 1   
    19     9    11 1   
    20    10    14 1   
    21    11    12 2   
    22    11    23 1   
    23    12    13 1   
    24    12    24 1   
    25    13    14 2   
    26    13    25 1   
    27    14    26 1   
@<TRIPOS>SUBSTRUCTURE
     1 1CJ         1 TEMP              0 ****  ****    0 ROOT
