@<TRIPOS>MOLECULE
1CJ
   26    27     1     0     0
SMALL
No Charge or Current Charge


@<TRIPOS>ATOM
      1 O1           1.4550    -1.5460     1.0700 oh         1 1CJ      -0.684000
      2 C1           1.3950    -0.7540    -0.0970 c3         1 1CJ       0.476500
      3 O2           2.5230     0.1170    -0.1260 os         1 1CJ      -0.487000
      4 C9           3.7860    -0.5270    -0.3670 c3         1 1CJ       0.167600
      5 C10          4.8620     0.5700    -0.4110 c3         1 1CJ      -0.094100
      6 C2           0.1640     0.0910    -0.0360 cc         1 1CJ      -0.354800
      7 C8           0.1370     1.4960     0.0740 cc         1 1CJ       0.421500
      8 N2          -1.0760     2.0330     0.0960 nd         1 1CJ      -0.590100
      9 N1          -1.9000     0.9210    -0.0110 na         1 1CJ       0.321400
     10 C3          -1.1520    -0.2460    -0.0930 cd         1 1CJ      -0.071000
     11 C7          -3.2970     0.9050    -0.0430 cc         1 1CJ      -0.077000
     12 C6          -3.8460    -0.3760    -0.1650 cd         1 1CJ      -0.161000
     13 C5          -3.0980    -1.5450    -0.2490 cc         1 1CJ      -0.090000
     14 C4          -1.7210    -1.5430    -0.2180 cd         1 1CJ      -0.098000
     15 H1           1.4470    -0.8920     1.7960 ho         1 1CJ       0.454000
     16 H2           1.3720    -1.4060    -0.9820 h2         1 1CJ       0.064700
     17 H3           4.0280    -1.2400     0.4320 h1         1 1CJ       0.027700
     18 H4           3.7730    -1.0650    -1.3240 h1         1 1CJ       0.027700
     19 H5           4.6500     1.2870    -1.2130 hc         1 1CJ       0.042367
     20 H6           4.9020     1.1100     0.5420 hc         1 1CJ       0.042367
     21 H7           5.8470     0.1270    -0.5970 hc         1 1CJ       0.042367
     22 H8           0.9880     2.1620     0.1410 h4         1 1CJ       0.057800
     23 H9          -3.8270     1.8450     0.0260 h4         1 1CJ       0.160000
     24 H10         -4.9280    -0.4620    -0.1960 ha         1 1CJ       0.133000
     25 H11         -3.6160    -2.4950    -0.3410 ha         1 1CJ       0.124000
     26 H12         -1.1280    -2.4500    -0.2810 ha         1 1CJ       0.144000
@<TRIPOS>BOND
     1     1     2 1   
     2     1    15 1   
     3     2     3 1   
     4     2     6 1   
     5     2    16 1   
     6     3     4 1   
     7     4     5 1   
     8     4    17 1   
     9     4    18 1   
    10     5    19 1   
    11     5    20 1   
    12     5    21 1   
    13     6     7 1   
    14     6    10 2   
    15     7     8 2   
    16     7    22 1   
    17     8     9 1   
    18     9    10 1   
    19     9    11 1   
    20    10    14 1   
    21    11    12 2   
    22    11    23 1   
    23    12    13 1   
    24    12    24 1   
    25    13    14 2   
    26    13    25 1   
    27    14    26 1   
@<TRIPOS>SUBSTRUCTURE
     1 1CJ         1 TEMP              0 ****  ****    0 ROOT
