@<TRIPOS>MOLECULE
1CK
   26    27     1     0     0
SMALL
No Charge or Current Charge


@<TRIPOS>ATOM
      1 N1I         -4.1730    -1.5790     0.0060 nc         1 1CK      -0.578800
      2 N1J         -2.1530    -0.4000     0.0100 ns         1 1CK      -0.467400
      3 N1K         -5.5040    -1.1810     0.0010 na         1 1CK      -0.003200
      4 CAA         -6.9850     0.9310    -0.0090 c3         1 1CK      -0.033800
      5 OAB         -1.6860     1.8340     0.0060 o          1 1CK      -0.577100
      6 CAD          2.5130     1.1420     0.0200 ca         1 1CK      -0.094000
      7 CAE          2.0590    -1.2440     0.0250 ca         1 1CK      -0.094000
      8 CAF          1.1320     1.4050     0.0160 ca         1 1CK      -0.070500
      9 CAG          0.6760    -0.9860     0.0200 ca         1 1CK      -0.070500
     10 CAH         -4.3900     0.6780    -0.0000 cd         1 1CK      -0.221000
     11 CAL         -1.2930     0.6770     0.0100 c          1 1CK       0.623700
     12 CAM         -5.6700     0.2030    -0.0030 cc         1 1CK      -0.127300
     13 CAN          2.9750    -0.1820     0.0250 ca         1 1CK      -0.000900
     14 CAO          0.1900     0.3480     0.0150 ca         1 1CK      -0.140600
     15 CAP         -3.5230    -0.4370     0.0050 cd         1 1CK       0.380900
     16 HN1J        -1.6900    -1.2940     0.0130 hn         1 1CK       0.334500
     17 HAA         -7.5790     0.6760     0.8760 hc         1 1CK       0.053033
     18 HAAA        -6.8340     2.0180    -0.0100 hc         1 1CK       0.053033
     19 HAAB        -7.5720     0.6730    -0.8990 hc         1 1CK       0.053033
     20 HAD          3.2220     1.9660     0.0210 ha         1 1CK       0.134000
     21 HAE          2.4190    -2.2700     0.0290 ha         1 1CK       0.134000
     22 HAF          0.7970     2.4400     0.0120 ha         1 1CK       0.130000
     23 HAG          0.0020    -1.8390     0.0200 ha         1 1CK       0.130000
     24 HAH         -4.1140     1.7240    -0.0020 ha         1 1CK       0.169000
     25 H10         -6.2590    -1.8670     0.0000 hn         1 1CK       0.371000
     26 BrAC         4.8540    -0.5390     0.0320 br         1 1CK      -0.088100
@<TRIPOS>BOND
     1     1     3 1   
     2     1    15 2   
     3     2    11 1   
     4     2    15 1   
     5     2    16 1   
     6     3    12 1   
     7     3    25 1   
     8     4    12 1   
     9     4    17 1   
    10     4    18 1   
    11     4    19 1   
    12     5    11 2   
    13     6     8 ar  
    14     6    13 ar  
    15     6    20 1   
    16     7     9 ar  
    17     7    13 ar  
    18     7    21 1   
    19     8    14 ar  
    20     8    22 1   
    21     9    14 ar  
    22     9    23 1   
    23    10    12 2   
    24    10    15 1   
    25    10    24 1   
    26    11    14 1   
    27    13    26 1   
@<TRIPOS>SUBSTRUCTURE
     1 1CK         1 TEMP              0 ****  ****    0 ROOT
