@<TRIPOS>MOLECULE
1CK
   26    27     1     0     0
SMALL
bcc


@<TRIPOS>ATOM
      1 N1I         -4.1560    -1.4070    -0.4560 nc         1 1CK      -0.578800
      2 N1J         -2.1070    -0.3740    -0.1440 ns         1 1CK      -0.534400
      3 N1K         -5.4410    -1.0590    -0.3710 na         1 1CK      -0.003600
      4 CAA         -6.9690     0.8370     0.1450 c3         1 1CK      -0.033800
      5 OAB         -1.6350     1.7980     0.2900 o          1 1CK      -0.577100
      6 CAD          2.4590     1.0720    -0.2720 ca         1 1CK      -0.112000
      7 CAE          2.0370    -1.2160     0.3840 ca         1 1CK      -0.112000
      8 CAF          1.0970     1.3200    -0.2500 ca         1 1CK      -0.088500
      9 CAG          0.6760    -0.9550     0.3880 ca         1 1CK      -0.088500
     10 CAH         -4.3650     0.7610     0.1420 cd         1 1CK      -0.304300
     11 CAL         -1.2620     0.6560     0.0860 c          1 1CK       0.690700
     12 CAM         -5.6260     0.2230    -0.0180 cc         1 1CK      -0.076600
     13 CAN          2.9180    -0.1990     0.0480 ca         1 1CK      -0.000900
     14 CAO          0.1920     0.3110     0.0660 ca         1 1CK      -0.140600
     15 CAP         -3.4960    -0.3090    -0.1450 cd         1 1CK       0.446200
     16 HN1J        -1.7270    -1.2710    -0.4040 hn         1 1CK       0.334500
     17 HAA         -7.5290     0.3650     0.9540 hc         1 1CK       0.053033
     18 HAAA        -6.8700     1.8950     0.3790 hc         1 1CK       0.053033
     19 HAAB        -7.5650     0.7480    -0.7630 hc         1 1CK       0.053033
     20 HAD          3.1460     1.8650    -0.5320 ha         1 1CK       0.152000
     21 HAE          2.3940    -2.2010     0.6500 ha         1 1CK       0.152000
     22 HAF          0.7410     2.3120    -0.4930 ha         1 1CK       0.148000
     23 HAG          0.0070    -1.7560     0.6740 ha         1 1CK       0.148000
     24 HAH         -4.1280     1.7700     0.4230 ha         1 1CK       0.187000
     25 H10         -6.1520    -1.7430    -0.5740 hn         1 1CK       0.320700
     26 BRAC         4.7710    -0.5460     0.0320 br         1 1CK      -0.088100
@<TRIPOS>BOND
     1     1     3 1   
     2     1    15 2   
     3     2    11 1   
     4     2    15 1   
     5     2    16 1   
     6     3    12 1   
     7     3    25 1   
     8     4    12 1   
     9     4    17 1   
    10     4    18 1   
    11     4    19 1   
    12     5    11 2   
    13     6     8 ar  
    14     6    13 ar  
    15     6    20 1   
    16     7     9 ar  
    17     7    13 ar  
    18     7    21 1   
    19     8    14 ar  
    20     8    22 1   
    21     9    14 ar  
    22     9    23 1   
    23    10    12 2   
    24    10    15 1   
    25    10    24 1   
    26    11    14 1   
    27    13    26 1   
@<TRIPOS>SUBSTRUCTURE
     1 1CK         1 TEMP              0 ****  ****    0 ROOT
