@<TRIPOS>MOLECULE
1CM
   34    35     1     0     0
SMALL
abcg2


@<TRIPOS>ATOM
      1 O23         -0.4150     1.1640    -1.6110 o          1 1CM      -0.567100
      2 C22         -0.1640     0.9940    -0.4360 c          1 1CM       0.615100
      3 C31          1.1910     1.3240     0.1770 c3         1 1CM      -0.093400
      4 C36          1.8650     2.4950    -0.5410 c3         1 1CM      -0.059400
      5 C35          3.1880     2.8800     0.1030 c3         1 1CM      -0.092100
      6 C33          2.4190    -0.5370     1.3590 ca         1 1CM      -0.100000
      7 C32          2.0260     0.0600     0.1660 ca         1 1CM      -0.090300
      8 C41          3.1690    -1.6920    -1.0430 ca         1 1CM      -0.108500
      9 C42          3.5590    -2.2800     0.1540 ca         1 1CM      -0.103000
     10 N21         -1.0430     0.4530     0.4560 ns         1 1CM      -0.145000
     11 C14         -2.3200    -0.0420     0.2350 ca         1 1CM       0.021000
     12 C15         -3.0500    -0.4590     1.3510 ca         1 1CM      -0.209000
     13 C11          3.1820    -1.6990     1.3560 ca         1 1CM      -0.108500
     14 C16         -4.3210    -0.9680     1.1730 ca         1 1CM       0.356900
     15 N11         -4.9110    -1.0920    -0.0120 nb         1 1CM      -0.682000
     16 C12         -4.2100    -0.6950    -1.0660 ca         1 1CM       0.356900
     17 C10          2.4080    -0.5320    -1.0370 ca         1 1CM      -0.100000
     18 C13         -2.9290    -0.1670    -1.0140 ca         1 1CM      -0.209000
     19 H31          1.0390     1.6150     1.2220 hc         1 1CM       0.058700
     20 H361         1.1870     3.3520    -0.5220 hc         1 1CM       0.055700
     21 H362         2.0220     2.2490    -1.5930 hc         1 1CM       0.055700
     22 H351         3.6200     3.7460    -0.3990 hc         1 1CM       0.036700
     23 H352         3.0600     3.1380     1.1560 hc         1 1CM       0.036700
     24 H353         3.9150     2.0700     0.0470 hc         1 1CM       0.036700
     25 H33          2.1340    -0.0880     2.3030 ha         1 1CM       0.116500
     26 H41          3.4540    -2.1400    -1.9860 ha         1 1CM       0.115500
     27 H42          4.1530    -3.1840     0.1480 ha         1 1CM       0.115000
     28 H21         -0.7350     0.4140     1.4160 hn         1 1CM       0.154000
     29 H15         -2.6340    -0.3830     2.3480 ha         1 1CM       0.135500
     30 H11          3.4780    -2.1480     2.2950 ha         1 1CM       0.115500
     31 H16         -4.8900    -1.2900     2.0380 h4         1 1CM       0.018100
     32 H12         -4.6900    -0.8000    -2.0330 h4         1 1CM       0.018100
     33 H10          2.1110    -0.0880    -1.9790 ha         1 1CM       0.116500
     34 H13         -2.4400     0.1260    -1.9270 ha         1 1CM       0.135500
@<TRIPOS>BOND
     1     1     2 2   
     2     2     3 1   
     3     2    10 1   
     4     3     4 1   
     5     3     7 1   
     6     3    19 1   
     7     4     5 1   
     8     4    20 1   
     9     4    21 1   
    10     5    22 1   
    11     5    23 1   
    12     5    24 1   
    13     6     7 ar  
    14     6    13 ar  
    15     6    25 1   
    16     7    17 ar  
    17     8     9 ar  
    18     8    17 ar  
    19     8    26 1   
    20     9    13 ar  
    21     9    27 1   
    22    10    11 1   
    23    10    28 1   
    24    11    12 ar  
    25    11    18 ar  
    26    12    14 ar  
    27    12    29 1   
    28    13    30 1   
    29    14    15 ar  
    30    14    31 1   
    31    15    16 ar  
    32    16    18 ar  
    33    16    32 1   
    34    17    33 1   
    35    18    34 1   
@<TRIPOS>SUBSTRUCTURE
     1 1CM         1 TEMP              0 ****  ****    0 ROOT
