@<TRIPOS>MOLECULE
1CM
   34    35     1     0     0
SMALL
No Charge or Current Charge


@<TRIPOS>ATOM
      1 O23         -0.2320     0.3010    -1.6660 o          1 1CM      -0.567100
      2 C22         -0.1370     0.5380    -0.4660 c          1 1CM       0.615100
      3 C31          1.1990     0.9850     0.1760 c3         1 1CM      -0.093400
      4 C36          1.6880     2.3360    -0.4180 c3         1 1CM      -0.059400
      5 C35          2.9550     2.8910     0.2660 c3         1 1CM      -0.092100
      6 C33          2.6010    -0.8530     1.2500 ca         1 1CM      -0.100000
      7 C32          2.2460    -0.1340     0.0900 ca         1 1CM      -0.090300
      8 C41          3.8200    -1.4920    -1.1970 ca         1 1CM      -0.108500
      9 C42          4.1700    -2.2000    -0.0360 ca         1 1CM      -0.103000
     10 N21         -1.1910     0.4260     0.4320 ns         1 1CM      -0.145000
     11 C14         -2.5520     0.0530     0.2650 ca         1 1CM       0.021000
     12 C15         -3.3820     0.0220     1.3980 ca         1 1CM      -0.209000
     13 C11          3.5590    -1.8810     1.1870 ca         1 1CM      -0.108500
     14 C16         -4.7310    -0.3420     1.2650 ca         1 1CM       0.356900
     15 N11         -5.2880    -0.6730     0.0790 nb         1 1CM      -0.682000
     16 C12         -4.4960    -0.6460    -1.0150 ca         1 1CM       0.356900
     17 C10          2.8630    -0.4650    -1.1350 ca         1 1CM      -0.100000
     18 C13         -3.1370    -0.2920    -0.9690 ca         1 1CM      -0.209000
     19 H31          0.9940     1.1760     1.2370 hc         1 1CM       0.058700
     20 H361         0.8860     3.0790    -0.3180 hc         1 1CM       0.055700
     21 H362         1.8770     2.2310    -1.4930 hc         1 1CM       0.055700
     22 H351         3.2260     3.8620    -0.1640 hc         1 1CM       0.036700
     23 H352         2.7880     3.0280     1.3410 hc         1 1CM       0.036700
     24 H353         3.8040     2.2110     0.1320 hc         1 1CM       0.036700
     25 H33          2.1380    -0.6180     2.2060 ha         1 1CM       0.116500
     26 H41          4.2900    -1.7400    -2.1470 ha         1 1CM       0.115500
     27 H42          4.9110    -2.9950    -0.0840 ha         1 1CM       0.115000
     28 H21         -0.9460     0.6520     1.3870 hn         1 1CM       0.154000
     29 H15         -2.9940     0.2780     2.3800 ha         1 1CM       0.135500
     30 H11          3.8270    -2.4290     2.0880 ha         1 1CM       0.115500
     31 H16         -5.3860    -0.3700     2.1350 h4         1 1CM       0.018100
     32 H12         -4.9650    -0.9150    -1.9610 h4         1 1CM       0.018100
     33 H10          2.6000     0.0680    -2.0460 ha         1 1CM       0.116500
     34 H13         -2.5750    -0.2960    -1.8960 ha         1 1CM       0.135500
@<TRIPOS>BOND
     1     1     2 2   
     2     2     3 1   
     3     2    10 1   
     4     3     4 1   
     5     3     7 1   
     6     3    19 1   
     7     4     5 1   
     8     4    20 1   
     9     4    21 1   
    10     5    22 1   
    11     5    23 1   
    12     5    24 1   
    13     6     7 ar  
    14     6    13 ar  
    15     6    25 1   
    16     7    17 ar  
    17     8     9 ar  
    18     8    17 ar  
    19     8    26 1   
    20     9    13 ar  
    21     9    27 1   
    22    10    11 1   
    23    10    28 1   
    24    11    12 ar  
    25    11    18 ar  
    26    12    14 ar  
    27    12    29 1   
    28    13    30 1   
    29    14    15 ar  
    30    14    31 1   
    31    15    16 ar  
    32    16    18 ar  
    33    16    32 1   
    34    17    33 1   
    35    18    34 1   
@<TRIPOS>SUBSTRUCTURE
     1 1CM         1 TEMP              0 ****  ****    0 ROOT
