@<TRIPOS>MOLECULE
1CN
   29    30     1     0     0
SMALL
No Charge or Current Charge


@<TRIPOS>ATOM
      1 S1           3.2890     1.6050    -0.4640 sy         1 1CN       1.122200
      2 O1           3.1990     2.8890     0.2320 o          1 1CN      -0.513500
      3 O2           3.3000     1.5260    -1.9250 o          1 1CN      -0.513500
      4 N1           4.7890     1.0680    -0.0590 n8         1 1CN      -1.018100
      5 N2           1.6050     0.5140     1.4540 nc         1 1CN      -0.183000
      6 N3           0.7810    -0.5600     1.7610 nc         1 1CN      -0.406000
      7 S2           1.7170    -1.0760    -0.6220 ss         1 1CN      -0.142800
      8 C1           2.1540     0.3860     0.2470 cd         1 1CN       0.120300
      9 C2           0.7330    -1.4250     0.7650 cd         1 1CN       0.682300
     10 N4           0.0090    -2.5550     0.8760 nu         1 1CN      -0.857000
     11 S3          -1.6340    -2.4940     1.0830 sy         1 1CN       1.202600
     12 O3          -2.0910    -3.6000     0.2440 o          1 1CN      -0.516500
     13 O4          -1.8200    -2.4740     2.5340 o          1 1CN      -0.516500
     14 C4          -2.3410    -0.8280    -1.0340 ca         1 1CN      -0.003000
     15 C8          -2.3480     0.1910     1.1840 ca         1 1CN       0.074000
     16 C5          -2.7280     0.4000    -1.5950 ca         1 1CN       0.059000
     17 C7          -2.9260     1.5370    -0.7760 ca         1 1CN       0.377000
     18 C6          -2.7330     1.4200     0.6210 ca         1 1CN       0.008000
     19 C3          -2.1470    -0.9360     0.3590 ca         1 1CN      -0.361500
     20 Cl          -2.9670     2.8080     1.6950 cl         1 1CN      -0.186000
     21 N5          -3.3050     2.7480    -1.3320 nv         1 1CN      -1.084000
     22 HN11         5.2530     1.1070    -0.9660 hn         1 1CN       0.495500
     23 HN12         5.1640     1.8940     0.4040 hn         1 1CN       0.495500
     24 HN4          0.1140    -3.1700     0.0850 hn         1 1CN       0.528000
     25 H4          -2.1940    -1.6870    -1.6890 ha         1 1CN       0.147000
     26 H8          -2.1980     0.1280     2.2610 ha         1 1CN       0.167000
     27 HN51        -3.6240     2.7700    -2.2990 hn         1 1CN       0.501500
     28 HN52        -3.6240     3.4980    -0.7200 hn         1 1CN       0.501500
     29 F           -2.9080     0.4790    -2.9380 f          1 1CN      -0.181000
@<TRIPOS>BOND
     1     1     2 2   
     2     1     3 2   
     3     1     4 1   
     4     1     8 1   
     5     4    22 1   
     6     4    23 1   
     7     5     6 1   
     8     5     8 2   
     9     6     9 2   
    10     7     8 1   
    11     7     9 1   
    12     9    10 1   
    13    10    11 1   
    14    10    24 1   
    15    11    12 2   
    16    11    13 2   
    17    11    19 1   
    18    14    16 ar  
    19    14    19 ar  
    20    14    25 1   
    21    15    18 ar  
    22    15    19 ar  
    23    15    26 1   
    24    16    17 ar  
    25    16    29 1   
    26    17    18 ar  
    27    17    21 1   
    28    18    20 1   
    29    21    27 1   
    30    21    28 1   
@<TRIPOS>SUBSTRUCTURE
     1 1CN         1 TEMP              0 ****  ****    0 ROOT
