@<TRIPOS>MOLECULE
1CN
   29    30     1     0     0
SMALL
abcg2


@<TRIPOS>ATOM
      1 S1           4.2000     1.2320    -0.5990 sy         1 1CN       1.122200
      2 O1           3.8180     2.6230    -0.7010 o          1 1CN      -0.513500
      3 O2           4.7280     0.4960    -1.7290 o          1 1CN      -0.513500
      4 N1           5.2660     1.1080     0.6190 n8         1 1CN      -1.018100
      5 N2           1.9140     0.7400     0.7550 nc         1 1CN      -0.183000
      6 N3           0.8960    -0.1060     0.9550 nc         1 1CN      -0.406000
      7 S2           2.3510    -1.1840    -0.8530 ss         1 1CN      -0.142800
      8 C1           2.7430     0.3310    -0.1330 cd         1 1CN       0.120300
      9 C2           0.9740    -1.1590     0.1930 cd         1 1CN       0.682300
     10 N4           0.0520    -2.1550     0.1910 nu         1 1CN      -0.857000
     11 S3          -1.3990    -2.0950     1.0530 sy         1 1CN       1.202600
     12 O3          -2.0620    -3.3160     0.6400 o          1 1CN      -0.516500
     13 O4          -1.0910    -1.8560     2.4440 o          1 1CN      -0.516500
     14 C4          -2.8700    -0.8320    -0.8410 ca         1 1CN      -0.003000
     15 C8          -2.2770     0.4790     1.1060 ca         1 1CN       0.074000
     16 C5          -3.5140     0.2610    -1.3460 ca         1 1CN       0.059000
     17 C7          -3.5900     1.5000    -0.6820 ca         1 1CN       0.377000
     18 C6          -2.9450     1.5580     0.5660 ca         1 1CN       0.008000
     19 C3          -2.2440    -0.7130     0.4000 ca         1 1CN      -0.361500
     20 CL          -2.9970     3.0480     1.4430 cl         1 1CN      -0.186000
     21 N5          -4.2150     2.5490    -1.2410 nv         1 1CN      -1.084000
     22 HN11         5.0070     1.5970     1.4690 hn         1 1CN       0.495500
     23 HN12         5.6220     0.1750     0.7940 hn         1 1CN       0.495500
     24 HN4          0.1220    -2.9050    -0.4860 hn         1 1CN       0.528000
     25 H4          -2.8640    -1.7550    -1.4070 ha         1 1CN       0.147000
     26 H8          -1.7890     0.5770     2.0650 ha         1 1CN       0.167000
     27 HN51        -4.7840     2.4200    -2.0590 hn         1 1CN       0.501500
     28 HN52        -4.4080     3.3710    -0.6960 hn         1 1CN       0.501500
     29 F           -4.1260     0.1780    -2.5360 f          1 1CN      -0.181000
@<TRIPOS>BOND
     1     1     2 2   
     2     1     3 2   
     3     1     4 1   
     4     1     8 1   
     5     4    22 1   
     6     4    23 1   
     7     5     6 1   
     8     5     8 2   
     9     6     9 2   
    10     7     8 1   
    11     7     9 1   
    12     9    10 1   
    13    10    11 1   
    14    10    24 1   
    15    11    12 2   
    16    11    13 2   
    17    11    19 1   
    18    14    16 ar  
    19    14    19 ar  
    20    14    25 1   
    21    15    18 ar  
    22    15    19 ar  
    23    15    26 1   
    24    16    17 ar  
    25    16    29 1   
    26    17    18 ar  
    27    17    21 1   
    28    18    20 1   
    29    21    27 1   
    30    21    28 1   
@<TRIPOS>SUBSTRUCTURE
     1 1CN         1 TEMP              0 ****  ****    0 ROOT
