@<TRIPOS>MOLECULE
1CO
   21    20     1     0     0
SMALL
No Charge or Current Charge


@<TRIPOS>ATOM
      1 C2           1.1580    -0.5800     0.1610 c3         1 1CO      -0.111400
      2 C6          -0.4070     1.2460     1.0750 c3         1 1CO      -0.074100
      3 C5          -2.7430    -0.3710    -0.0890 c          1 1CO       0.722000
      4 C4          -1.3540    -0.9670     0.1640 c3         1 1CO      -0.237400
      5 C3          -0.2370     0.1030     0.0380 c3         1 1CO       0.213000
      6 C1           2.3800     0.3410    -0.0590 c3         1 1CO       0.112600
      7 O4          -3.0530    -0.1590    -1.2520 o          1 1CO      -0.731500
      8 O3          -3.4310    -0.0570     0.8690 o          1 1CO      -0.731500
      9 O7          -0.3450     0.6650    -1.2680 oh         1 1CO      -0.654000
     10 S2           3.9930    -0.5690     0.0370 sh         1 1CO      -0.509800
     11 H1           1.2440    -1.0400     1.1530 hc         1 1CO       0.046700
     12 H2           1.2200    -1.4000    -0.5650 hc         1 1CO       0.046700
     13 H3           0.3560     2.0220     0.9450 hc         1 1CO       0.038033
     14 H4          -1.3800     1.7400     0.9730 hc         1 1CO       0.038033
     15 H5          -0.3270     0.8570     2.0970 hc         1 1CO       0.038033
     16 H6          -1.2950    -1.3930     1.1730 hc         1 1CO       0.024200
     17 H7          -1.1380    -1.7020    -0.6210 hc         1 1CO       0.024200
     18 H8           2.3130     0.8170    -1.0460 h1         1 1CO       0.059700
     19 H9           2.3960     1.1320     0.7010 h1         1 1CO       0.059700
     20 H11         -1.2730     0.4790    -1.5500 ho         1 1CO       0.430000
     21 H12          4.7820     0.5100    -0.1990 hs         1 1CO       0.198800
@<TRIPOS>BOND
     1     1     5 1   
     2     1     6 1   
     3     1    11 1   
     4     1    12 1   
     5     2     5 1   
     6     2    13 1   
     7     2    14 1   
     8     2    15 1   
     9     3     4 1   
    10     3     7 1   
    11     3     8 1   
    12     4     5 1   
    13     4    16 1   
    14     4    17 1   
    15     5     9 1   
    16     6    10 1   
    17     6    18 1   
    18     6    19 1   
    19     9    20 1   
    20    10    21 1   
@<TRIPOS>SUBSTRUCTURE
     1 1CO         1 TEMP              0 ****  ****    0 ROOT
