@<TRIPOS>MOLECULE
1CO
   21    20     1     0     0
SMALL
abcg2


@<TRIPOS>ATOM
      1 C2           1.0910    -0.5090     0.0410 c3         1 1CO      -0.111400
      2 C6          -0.3620     1.1550     1.2520 c3         1 1CO      -0.074100
      3 C5          -2.8430    -0.4110    -0.1070 c          1 1CO       0.722000
      4 C4          -1.3660    -0.8320     0.0530 c3         1 1CO      -0.237400
      5 C3          -0.2630     0.2310     0.0450 c3         1 1CO       0.213000
      6 C1           2.3050     0.4070     0.0050 c3         1 1CO       0.112600
      7 O4          -3.6260    -1.3620    -0.3180 o          1 1CO      -0.731500
      8 O3          -3.1620     0.7880    -0.0030 o          1 1CO      -0.731500
      9 O7          -0.3550     1.0510    -1.1110 oh         1 1CO      -0.654000
     10 S2           3.8020    -0.6220    -0.1800 sh         1 1CO      -0.509800
     11 H1           1.1490    -1.1580     0.9200 hc         1 1CO       0.046700
     12 H2           1.1190    -1.1730    -0.8320 hc         1 1CO       0.046700
     13 H3           0.4000     1.9350     1.2290 hc         1 1CO       0.038033
     14 H4          -1.3380     1.6320     1.2870 hc         1 1CO       0.038033
     15 H5          -0.2270     0.5860     2.1730 hc         1 1CO       0.038033
     16 H6          -1.2870    -1.4080     0.9830 hc         1 1CO       0.024200
     17 H7          -1.1510    -1.5620    -0.7380 hc         1 1CO       0.024200
     18 H8           2.2400     1.0990    -0.8330 h1         1 1CO       0.059700
     19 H9           2.3900     0.9860     0.9240 h1         1 1CO       0.059700
     20 H11         -0.3640     0.4780    -1.8850 ho         1 1CO       0.430000
     21 H12          4.7080     0.3620    -0.1660 hs         1 1CO       0.198800
@<TRIPOS>BOND
     1     1     5 1   
     2     1     6 1   
     3     1    11 1   
     4     1    12 1   
     5     2     5 1   
     6     2    13 1   
     7     2    14 1   
     8     2    15 1   
     9     3     4 1   
    10     3     7 1   
    11     3     8 1   
    12     4     5 1   
    13     4    16 1   
    14     4    17 1   
    15     5     9 1   
    16     6    10 1   
    17     6    18 1   
    18     6    19 1   
    19     9    20 1   
    20    10    21 1   
@<TRIPOS>SUBSTRUCTURE
     1 1CO         1 TEMP              0 ****  ****    0 ROOT
