@<TRIPOS>MOLECULE
1CP
   88    92     1     0     0
SMALL
bcc


@<TRIPOS>ATOM
      1 O18         -0.3920     5.5680     2.8570 o          1 1CP      -0.865425
      2 C43         -0.9090     5.5760     1.7200 c          1 1CP       0.926850
      3 O28         -1.4270     6.5600     1.1540 o          1 1CP      -0.865425
      4 C42         -0.9060     4.2330     0.9710 c3         1 1CP      -0.199900
      5 C41         -1.4050     4.2660    -0.4730 c3         1 1CP       0.011900
      6 C8          -1.4560     2.9030    -1.0880 cc         1 1CP      -0.117550
      7 C7          -2.5160     1.9620    -0.9300 cc         1 1CP      -0.150800
      8 C7A         -3.7880     2.1930    -0.1820 c3         1 1CP      -0.003300
      9 C9          -0.4760     2.2930    -1.8370 cd         1 1CP      -0.138600
     10 C10          0.8760     2.7810    -2.2360 c3         1 1CP       0.070450
     11 N22         -0.9060     1.0260    -2.1190 na         1 1CP      -0.149850
     12 C6          -2.1430     0.8120    -1.5850 cd         1 1CP      -0.122350
     13 C5          -2.8320    -0.5140    -1.6880 c3         1 1CP       0.070450
     14 C4          -2.8480    -1.2530    -0.3880 cc         1 1CP      -0.138600
     15 N21         -1.6920    -1.5610     0.2680 na         1 1CP      -0.149850
     16 C3          -3.8950    -1.6800     0.3950 cd         1 1CP      -0.117550
     17 C31         -5.3530    -1.5910     0.0730 c3         1 1CP       0.011900
     18 C32         -5.9280    -2.9100    -0.4360 c3         1 1CP      -0.199900
     19 C33         -7.4280    -2.9050    -0.7750 c          1 1CP       0.926850
     20 O23         -8.0630    -1.8450    -0.6060 o          1 1CP      -0.865425
     21 O13         -7.8960    -3.9840    -1.1980 o          1 1CP      -0.865425
     22 C2          -3.3280    -2.2640     1.5710 cd         1 1CP      -0.150800
     23 C2A         -4.0810    -2.8720     2.7090 c3         1 1CP      -0.003300
     24 C1          -1.9610    -2.1680     1.4580 cc         1 1CP      -0.122350
     25 C20         -0.8680    -2.6280     2.3810 c3         1 1CP       0.070450
     26 C19          0.4870    -2.1580     1.9690 cc         1 1CP      -0.138600
     27 N24          0.9350    -0.8970     2.2490 na         1 1CP      -0.149850
     28 C18          1.4490    -2.7770     1.2020 cd         1 1CP      -0.117550
     29 C61          1.3670    -4.1390     0.5890 c3         1 1CP       0.011900
     30 C62          0.9760    -4.0910    -0.8860 c3         1 1CP      -0.199900
     31 C63          0.9070    -5.4460    -1.6110 c          1 1CP       0.926850
     32 O1R          0.5310    -5.4080    -2.8020 o          1 1CP      -0.865425
     33 O2R          1.2270    -6.4680    -0.9720 o          1 1CP      -0.865425
     34 C17          2.5170    -1.8470     1.0340 cd         1 1CP      -0.150800
     35 C86          3.7690    -2.0630     0.2480 c3         1 1CP      -0.003300
     36 C16          2.1660    -0.6960     1.6990 cc         1 1CP      -0.122350
     37 C15          2.8800     0.6170     1.7810 c3         1 1CP       0.070450
     38 C14          2.8890     1.3370     0.4710 cc         1 1CP      -0.138600
     39 N23          1.7250     1.7110    -0.1380 na         1 1CP      -0.149850
     40 C11          1.9770     2.2620    -1.3580 cc         1 1CP      -0.122350
     41 C12          3.3400     2.2560    -1.5400 cd         1 1CP      -0.150800
     42 C81          4.0720     2.7740    -2.7350 c3         1 1CP      -0.003300
     43 C13          3.9230     1.6650    -0.3740 cd         1 1CP      -0.117550
     44 C91          5.3850     1.4610    -0.1330 c3         1 1CP       0.011900
     45 C92          6.1280     2.7570     0.1760 c3         1 1CP      -0.199900
     46 C53          7.6380     2.6220     0.4370 c          1 1CP       0.926850
     47 O2M          8.1260     1.4740     0.4700 o          1 1CP      -0.865425
     48 O1M          8.2610     3.6920     0.6050 o          1 1CP      -0.865425
     49 H421         0.1100     3.8270     0.9950 hc         1 1CP       0.024575
     50 H422        -1.5080     3.5200     1.5470 hc         1 1CP       0.024575
     51 H411        -2.3990     4.7190    -0.4990 hc         1 1CP       0.037200
     52 H412        -0.7620     4.9260    -1.0620 hc         1 1CP       0.037200
     53 H7A1        -4.3230     3.0700    -0.5550 hc         1 1CP       0.026283
     54 H7A2        -4.4620     1.3420    -0.2600 hc         1 1CP       0.026283
     55 H7A3        -3.6120     2.3650     0.8830 hc         1 1CP       0.026283
     56 H101         1.0880     2.5130    -3.2770 hc         1 1CP       0.052825
     57 H102         0.8650     3.8750    -2.2160 hc         1 1CP       0.052825
     58 H22         -0.4070     0.3650    -2.6930 hn         1 1CP       0.297200
     59 H51         -3.8650    -0.3800    -2.0170 hc         1 1CP       0.052825
     60 H52         -2.3520    -1.1120    -2.4700 hc         1 1CP       0.052825
     61 H21         -0.7620    -1.3490    -0.0570 hn         1 1CP       0.297200
     62 H311        -5.9120    -1.2700     0.9570 hc         1 1CP       0.037200
     63 H312        -5.5220    -0.8150    -0.6790 hc         1 1CP       0.037200
     64 H321        -5.3700    -3.2250    -1.3260 hc         1 1CP       0.024575
     65 H322        -5.7480    -3.7000     0.3030 hc         1 1CP       0.024575
     66 H2A1        -4.4330    -3.8830     2.4850 hc         1 1CP       0.026283
     67 H2A2        -3.4660    -2.9430     3.6080 hc         1 1CP       0.026283
     68 H2A3        -4.9640    -2.2850     2.9680 hc         1 1CP       0.026283
     69 H201        -1.0910    -2.3000     3.4010 hc         1 1CP       0.052825
     70 H202        -0.8570    -3.7210     2.4250 hc         1 1CP       0.052825
     71 H24          0.4530    -0.2340     2.8340 hn         1 1CP       0.297200
     72 H611         2.3300    -4.6490     0.6870 hc         1 1CP       0.037200
     73 H612         0.6500    -4.7570     1.1350 hc         1 1CP       0.037200
     74 H621         0.0030    -3.5980    -0.9870 hc         1 1CP       0.024575
     75 H622         1.6750    -3.4450    -1.4300 hc         1 1CP       0.024575
     76 H861         3.6610    -1.7440    -0.7920 hc         1 1CP       0.026283
     77 H862         4.6110    -1.5070     0.6610 hc         1 1CP       0.026283
     78 H863         4.0530    -3.1160     0.2330 hc         1 1CP       0.026283
     79 H151         2.4220     1.2330     2.5630 hc         1 1CP       0.052825
     80 H152         3.9140     0.4610     2.0960 hc         1 1CP       0.052825
     81 H23          0.7990     1.5670     0.2320 hn         1 1CP       0.297200
     82 H811         4.4660     3.7820    -2.5810 hc         1 1CP       0.026283
     83 H812         4.9250     2.1420    -2.9900 hc         1 1CP       0.026283
     84 H813         3.4270     2.8170    -3.6140 hc         1 1CP       0.026283
     85 H911         5.5300     0.7610     0.6930 hc         1 1CP       0.037200
     86 H912         5.8400     0.9810    -1.0050 hc         1 1CP       0.037200
     87 H921         5.9840     3.4740    -0.6390 hc         1 1CP       0.024575
     88 H922         5.6710     3.2320     1.0520 hc         1 1CP       0.024575
@<TRIPOS>BOND
     1     1     2 1   
     2     2     3 1   
     3     2     4 1   
     4     4     5 1   
     5     4    49 1   
     6     4    50 1   
     7     5     6 1   
     8     5    51 1   
     9     5    52 1   
    10     6     7 1   
    11     6     9 2   
    12     7     8 1   
    13     7    12 2   
    14     8    53 1   
    15     8    54 1   
    16     8    55 1   
    17     9    10 1   
    18     9    11 1   
    19    10    40 1   
    20    10    56 1   
    21    10    57 1   
    22    11    12 1   
    23    11    58 1   
    24    12    13 1   
    25    13    14 1   
    26    13    59 1   
    27    13    60 1   
    28    14    15 1   
    29    14    16 2   
    30    15    24 1   
    31    15    61 1   
    32    16    17 1   
    33    16    22 1   
    34    17    18 1   
    35    17    62 1   
    36    17    63 1   
    37    18    19 1   
    38    18    64 1   
    39    18    65 1   
    40    19    20 1   
    41    19    21 1   
    42    22    23 1   
    43    22    24 2   
    44    23    66 1   
    45    23    67 1   
    46    23    68 1   
    47    24    25 1   
    48    25    26 1   
    49    25    69 1   
    50    25    70 1   
    51    26    27 1   
    52    26    28 2   
    53    27    36 1   
    54    27    71 1   
    55    28    29 1   
    56    28    34 1   
    57    29    30 1   
    58    29    72 1   
    59    29    73 1   
    60    30    31 1   
    61    30    74 1   
    62    30    75 1   
    63    31    32 1   
    64    31    33 1   
    65    34    35 1   
    66    34    36 2   
    67    35    76 1   
    68    35    77 1   
    69    35    78 1   
    70    36    37 1   
    71    37    38 1   
    72    37    79 1   
    73    37    80 1   
    74    38    39 1   
    75    38    43 2   
    76    39    40 1   
    77    39    81 1   
    78    40    41 2   
    79    41    42 1   
    80    41    43 1   
    81    42    82 1   
    82    42    83 1   
    83    42    84 1   
    84    43    44 1   
    85    44    45 1   
    86    44    85 1   
    87    44    86 1   
    88    45    46 1   
    89    45    87 1   
    90    45    88 1   
    91    46    47 1   
    92    46    48 1   
@<TRIPOS>SUBSTRUCTURE
     1 1CP         1 TEMP              0 ****  ****    0 ROOT
