@<TRIPOS>MOLECULE
1CP
   88    92     1     0     0
SMALL
No Charge or Current Charge


@<TRIPOS>ATOM
      1 O18          0.1710     6.5680     1.0810 o          1 1CP      -0.760125
      2 C43         -0.7220     5.7940     1.3870 c          1 1CP       0.716250
      3 O28         -1.6740     6.1090     2.0840 o          1 1CP      -0.760125
      4 C42         -0.6760     4.3660     0.8200 c3         1 1CP      -0.199900
      5 C41         -1.3960     4.3240    -0.5470 c3         1 1CP       0.011900
      6 C8          -1.4600     2.9350    -1.1450 cc         1 1CP      -0.117550
      7 C7          -2.5350     2.0300    -0.9420 cc         1 1CP      -0.150800
      8 C7A         -3.7490     2.3410    -0.1010 c3         1 1CP      -0.003300
      9 C9          -0.5220     2.3180    -1.9350 cd         1 1CP      -0.189300
     10 C10          0.8430     2.7990    -2.3720 c3         1 1CP       0.070450
     11 N22         -1.0160     1.0440    -2.2290 na         1 1CP      -0.098750
     12 C6          -2.2550     0.8640    -1.6100 cd         1 1CP      -0.173050
     13 C5          -3.0480    -0.4210    -1.6780 c3         1 1CP       0.070450
     14 C4          -2.9510    -1.2300    -0.4060 cc         1 1CP      -0.189300
     15 N21         -1.7400    -1.6010     0.1710 na         1 1CP      -0.098750
     16 C3          -3.9330    -1.7370     0.4110 cd         1 1CP      -0.117550
     17 C31         -5.4280    -1.6050     0.2100 c3         1 1CP       0.011900
     18 C32         -6.0080    -2.7260    -0.6810 c3         1 1CP      -0.199900
     19 C33         -7.5250    -2.5370    -0.8350 c          1 1CP       0.716250
     20 O23         -7.9320    -1.8410    -1.7530 o          1 1CP      -0.760125
     21 O13         -8.2600    -3.0580    -0.0100 o          1 1CP      -0.760125
     22 C2          -3.3090    -2.4090     1.4980 cd         1 1CP      -0.150800
     23 C2A         -4.0330    -3.1040     2.6260 c3         1 1CP      -0.003300
     24 C1          -1.9480    -2.3140     1.3470 cc         1 1CP      -0.173050
     25 C20         -0.8320    -2.8370     2.2190 c3         1 1CP       0.070450
     26 C19          0.5320    -2.3180     1.8240 cc         1 1CP      -0.189300
     27 N24          0.9680    -1.0180     2.0750 na         1 1CP      -0.098750
     28 C18          1.5540    -2.9420     1.1510 cd         1 1CP      -0.117550
     29 C61          1.5590    -4.3730     0.6550 c3         1 1CP       0.011900
     30 C62          0.8840    -4.5260    -0.7270 c3         1 1CP      -0.199900
     31 C63          0.9670    -5.9900    -1.1860 c          1 1CP       0.716250
     32 O1R          0.0730    -6.7540    -0.8540 o          1 1CP      -0.760125
     33 O2R          1.9470    -6.3410    -1.8250 o          1 1CP      -0.760125
     34 C17          2.6100    -2.0090     0.9750 cd         1 1CP      -0.150800
     35 C86          3.9120    -2.2890     0.2610 c3         1 1CP      -0.003300
     36 C16          2.2410    -0.8160     1.5450 cc         1 1CP      -0.173050
     37 C15          2.9960     0.4890     1.6210 c3         1 1CP       0.070450
     38 C14          2.9180     1.2920     0.3450 cc         1 1CP      -0.189300
     39 N23          1.7200     1.6080    -0.2870 na         1 1CP      -0.098750
     40 C11          1.9460     2.3280    -1.4540 cc         1 1CP      -0.173050
     41 C12          3.3060     2.4830    -1.5470 cd         1 1CP      -0.150800
     42 C81          4.0480     3.2050    -2.6470 c3         1 1CP      -0.003300
     43 C13          3.9120     1.8360    -0.4340 cd         1 1CP      -0.117550
     44 C91          5.4020     1.7620    -0.1730 c3         1 1CP       0.011900
     45 C92          5.9000     2.9010     0.7450 c3         1 1CP      -0.199900
     46 C53          7.4150     2.7730     0.9600 c          1 1CP       0.716250
     47 O2M          7.8120     2.0890     1.8920 o          1 1CP      -0.760125
     48 O1M          8.1620     3.3260     0.1670 o          1 1CP      -0.760125
     49 H421         0.3590     4.0630     0.6230 hc         1 1CP       0.024575
     50 H422        -1.2220     3.6750     1.4730 hc         1 1CP       0.024575
     51 H411        -2.4080     4.7310    -0.4330 hc         1 1CP       0.037200
     52 H412        -0.8840     5.0010    -1.2410 hc         1 1CP       0.037200
     53 H7A1        -4.3640     3.1150    -0.5760 hc         1 1CP       0.026283
     54 H7A2        -4.3780     1.4560     0.0400 hc         1 1CP       0.026283
     55 H7A3        -3.4590     2.6990     0.8930 hc         1 1CP       0.026283
     56 H101         1.0480     2.4500    -3.3910 hc         1 1CP       0.052825
     57 H102         0.8600     3.8940    -2.4240 hc         1 1CP       0.052825
     58 H22         -0.5370     0.3500    -2.7950 hn         1 1CP       0.347500
     59 H51         -4.0950    -0.1900    -1.9050 hc         1 1CP       0.052825
     60 H52         -2.6970    -1.0330    -2.5180 hc         1 1CP       0.052825
     61 H21         -0.8250    -1.3740    -0.2010 hn         1 1CP       0.347500
     62 H311        -5.9400    -1.6170     1.1800 hc         1 1CP       0.037200
     63 H312        -5.6660    -0.6320    -0.2350 hc         1 1CP       0.037200
     64 H321        -5.5060    -2.6270    -1.6510 hc         1 1CP       0.024575
     65 H322        -5.7870    -3.6670    -0.1630 hc         1 1CP       0.024575
     66 H2A1        -4.8310    -3.7520     2.2450 hc         1 1CP       0.026283
     67 H2A2        -3.3570    -3.7310     3.2180 hc         1 1CP       0.026283
     68 H2A3        -4.4900    -2.3730     3.3050 hc         1 1CP       0.026283
     69 H201        -1.0310    -2.5620     3.2620 hc         1 1CP       0.052825
     70 H202        -0.8430    -3.9320     2.1950 hc         1 1CP       0.052825
     71 H24          0.4280    -0.3150     2.5690 hn         1 1CP       0.347500
     72 H611         2.5890    -4.7450     0.5940 hc         1 1CP       0.037200
     73 H612         1.0540    -5.0240     1.3780 hc         1 1CP       0.037200
     74 H621        -0.1610    -4.2250    -0.5850 hc         1 1CP       0.024575
     75 H622         1.4430    -3.8750    -1.4090 hc         1 1CP       0.024575
     76 H861         4.4140    -1.3640    -0.0430 hc         1 1CP       0.026283
     77 H862         4.5990    -2.8460     0.9080 hc         1 1CP       0.026283
     78 H863         3.7480    -2.8810    -0.6470 hc         1 1CP       0.026283
     79 H151         2.6030     1.0950     2.4470 hc         1 1CP       0.052825
     80 H152         4.0410     0.2860     1.8820 hc         1 1CP       0.052825
     81 H23          0.7990     1.3440     0.0460 hn         1 1CP       0.347500
     82 H811         4.7800     3.9080    -2.2330 hc         1 1CP       0.026283
     83 H812         4.5860     2.4950    -3.2860 hc         1 1CP       0.026283
     84 H813         3.3680     3.7790    -3.2870 hc         1 1CP       0.026283
     85 H911         5.6600     0.7970     0.2780 hc         1 1CP       0.037200
     86 H912         5.9520     1.8000    -1.1210 hc         1 1CP       0.037200
     87 H921         5.6620     3.8350     0.2210 hc         1 1CP       0.024575
     88 H922         5.3630     2.7780     1.6940 hc         1 1CP       0.024575
@<TRIPOS>BOND
     1     1     2 1   
     2     2     3 1   
     3     2     4 1   
     4     4     5 1   
     5     4    49 1   
     6     4    50 1   
     7     5     6 1   
     8     5    51 1   
     9     5    52 1   
    10     6     7 1   
    11     6     9 2   
    12     7     8 1   
    13     7    12 2   
    14     8    53 1   
    15     8    54 1   
    16     8    55 1   
    17     9    10 1   
    18     9    11 1   
    19    10    40 1   
    20    10    56 1   
    21    10    57 1   
    22    11    12 1   
    23    11    58 1   
    24    12    13 1   
    25    13    14 1   
    26    13    59 1   
    27    13    60 1   
    28    14    15 1   
    29    14    16 2   
    30    15    24 1   
    31    15    61 1   
    32    16    17 1   
    33    16    22 1   
    34    17    18 1   
    35    17    62 1   
    36    17    63 1   
    37    18    19 1   
    38    18    64 1   
    39    18    65 1   
    40    19    20 1   
    41    19    21 1   
    42    22    23 1   
    43    22    24 2   
    44    23    66 1   
    45    23    67 1   
    46    23    68 1   
    47    24    25 1   
    48    25    26 1   
    49    25    69 1   
    50    25    70 1   
    51    26    27 1   
    52    26    28 2   
    53    27    36 1   
    54    27    71 1   
    55    28    29 1   
    56    28    34 1   
    57    29    30 1   
    58    29    72 1   
    59    29    73 1   
    60    30    31 1   
    61    30    74 1   
    62    30    75 1   
    63    31    32 1   
    64    31    33 1   
    65    34    35 1   
    66    34    36 2   
    67    35    76 1   
    68    35    77 1   
    69    35    78 1   
    70    36    37 1   
    71    37    38 1   
    72    37    79 1   
    73    37    80 1   
    74    38    39 1   
    75    38    43 2   
    76    39    40 1   
    77    39    81 1   
    78    40    41 2   
    79    41    42 1   
    80    41    43 1   
    81    42    82 1   
    82    42    83 1   
    83    42    84 1   
    84    43    44 1   
    85    44    45 1   
    86    44    85 1   
    87    44    86 1   
    88    45    46 1   
    89    45    87 1   
    90    45    88 1   
    91    46    47 1   
    92    46    48 1   
@<TRIPOS>SUBSTRUCTURE
     1 1CP         1 TEMP              0 ****  ****    0 ROOT
