@<TRIPOS>MOLECULE
1CQ
   44    47     1     0     0
SMALL
No Charge or Current Charge


@<TRIPOS>ATOM
      1 CAO          0.1250    -2.1220     0.8990 ca         1 1CQ      -0.068500
      2 CAP          0.5990    -3.4320     1.0900 ca         1 1CQ      -0.177000
      3 CAQ          1.6970    -3.8990     0.3570 ca         1 1CQ       0.137100
      4 OAY          2.1480    -5.1700     0.5500 oh         1 1CQ      -0.533100
      5 CAR          2.3240    -3.0580    -0.5740 ca         1 1CQ      -0.177000
      6 CAS          1.8520    -1.7470    -0.7660 ca         1 1CQ      -0.068500
      7 CAF          0.7540    -1.2580    -0.0240 ca         1 1CQ      -0.037000
      8 CAB          0.2470     0.1050    -0.2600 cc         1 1CQ      -0.195000
      9 CAC          1.0510     1.2090    -0.4450 cd         1 1CQ      -0.037000
     10 CAG          2.5110     1.4150    -0.2800 ca         1 1CQ      -0.078000
     11 CAT          3.3040     0.5810     0.5400 ca         1 1CQ      -0.050000
     12 CAU          4.6820     0.8210     0.6890 ca         1 1CQ      -0.179000
     13 CAV          5.2840     1.9030     0.0370 ca         1 1CQ       0.152100
     14 OAZ          6.6190     2.1270     0.1890 oh         1 1CQ      -0.528100
     15 CAW          4.5070     2.7580    -0.7580 ca         1 1CQ      -0.179000
     16 CAX          3.1280     2.5210    -0.9070 ca         1 1CQ      -0.050000
     17 NAD          0.1360     2.2690    -0.5960 na         1 1CQ      -0.007200
     18 NAE         -1.1940     1.8780    -0.4440 nd         1 1CQ      -0.573800
     19 CAA         -1.0700     0.5990    -0.2220 cc         1 1CQ       0.536900
     20 NAH         -2.1460    -0.2290    -0.0920 nu         1 1CQ      -0.940900
     21 CAI         -3.5240    -0.0110    -0.0530 ca         1 1CQ       0.295000
     22 CAJ         -4.0770     1.1290     0.5640 ca         1 1CQ      -0.130000
     23 CAK         -5.4720     1.3130     0.6050 ca         1 1CQ      -0.138000
     24 CAL         -6.3230     0.3510     0.0340 ca         1 1CQ       0.095100
     25 OBA         -7.6750     0.5190     0.0680 oh         1 1CQ      -0.538100
     26 CAM         -5.7800    -0.7920    -0.5710 ca         1 1CQ      -0.138000
     27 CAN         -4.3840    -0.9740    -0.6100 ca         1 1CQ      -0.130000
     28 H1          -0.7110    -1.7740     1.5000 ha         1 1CQ       0.120000
     29 H2           0.1140    -4.0830     1.8140 ha         1 1CQ       0.121500
     30 H3           2.9140    -5.3210    -0.0430 ho         1 1CQ       0.465000
     31 H4           3.1720    -3.4120    -1.1560 ha         1 1CQ       0.121500
     32 H5           2.3330    -1.1140    -1.5080 ha         1 1CQ       0.120000
     33 H6           2.8580    -0.2340     1.1010 ha         1 1CQ       0.122500
     34 H7           5.2790     0.1710     1.3240 ha         1 1CQ       0.125500
     35 H8           6.8620     2.9220    -0.3310 ho         1 1CQ       0.467000
     36 H9           4.9610     3.6070    -1.2640 ha         1 1CQ       0.125500
     37 H10          2.5470     3.1910    -1.5370 ha         1 1CQ       0.122500
     38 H11          0.3830     3.2470    -0.7400 hn         1 1CQ       0.374000
     39 H12         -1.8760    -1.1930    -0.2630 hn         1 1CQ       0.503000
     40 H13         -3.4280     1.8690     1.0220 ha         1 1CQ       0.126500
     41 H14         -5.8820     2.1990     1.0840 ha         1 1CQ       0.118000
     42 H15         -7.8760     1.3650     0.5250 ho         1 1CQ       0.460000
     43 H16         -6.4370    -1.5390    -1.0100 ha         1 1CQ       0.118000
     44 H17         -3.9730    -1.8630    -1.0810 ha         1 1CQ       0.126500
@<TRIPOS>BOND
     1     1     2 ar  
     2     1     7 ar  
     3     1    28 1   
     4     2     3 ar  
     5     2    29 1   
     6     3     4 1   
     7     3     5 ar  
     8     4    30 1   
     9     5     6 ar  
    10     5    31 1   
    11     6     7 ar  
    12     6    32 1   
    13     7     8 1   
    14     8     9 2   
    15     8    19 1   
    16     9    10 1   
    17     9    17 1   
    18    10    11 ar  
    19    10    16 ar  
    20    11    12 ar  
    21    11    33 1   
    22    12    13 ar  
    23    12    34 1   
    24    13    14 1   
    25    13    15 ar  
    26    14    35 1   
    27    15    16 ar  
    28    15    36 1   
    29    16    37 1   
    30    17    18 1   
    31    17    38 1   
    32    18    19 2   
    33    19    20 1   
    34    20    21 1   
    35    20    39 1   
    36    21    22 ar  
    37    21    27 ar  
    38    22    23 ar  
    39    22    40 1   
    40    23    24 ar  
    41    23    41 1   
    42    24    25 1   
    43    24    26 ar  
    44    25    42 1   
    45    26    27 ar  
    46    26    43 1   
    47    27    44 1   
@<TRIPOS>SUBSTRUCTURE
     1 1CQ         1 TEMP              0 ****  ****    0 ROOT
