@<TRIPOS>MOLECULE
1CQ
   44    47     1     0     0
SMALL
bcc


@<TRIPOS>ATOM
      1 CAO          0.3100    -2.1790     0.9740 ca         1 1CQ      -0.086500
      2 CAP          0.7640    -3.4850     1.0560 ca         1 1CQ      -0.195000
      3 CAQ          1.7110    -3.9510     0.1470 ca         1 1CQ       0.137100
      4 OAY          2.1320    -5.2250     0.2710 oh         1 1CQ      -0.494100
      5 CAR          2.1820    -3.0940    -0.8450 ca         1 1CQ      -0.195000
      6 CAS          1.7100    -1.7940    -0.9210 ca         1 1CQ      -0.086500
      7 CAF          0.7710    -1.3050    -0.0130 ca         1 1CQ      -0.037000
      8 CAB          0.2930     0.0790    -0.0810 cc         1 1CQ      -0.260300
      9 CAC          1.0320     1.2490    -0.1300 cd         1 1CQ       0.013700
     10 CAG          2.4720     1.4870    -0.0760 ca         1 1CQ      -0.078000
     11 CAT          3.2940     0.7130     0.7450 ca         1 1CQ      -0.068000
     12 CAU          4.6550     0.9420     0.8160 ca         1 1CQ      -0.197000
     13 CAV          5.2310     1.9650     0.0630 ca         1 1CQ       0.152100
     14 OAZ          6.5590     2.1510     0.1690 oh         1 1CQ      -0.489100
     15 CAW          4.4230     2.7480    -0.7590 ca         1 1CQ      -0.197000
     16 CAX          3.0610     2.5050    -0.8250 ca         1 1CQ      -0.068000
     17 NAD          0.1420     2.2510    -0.2320 na         1 1CQ      -0.007600
     18 NAE         -1.1320     1.8360    -0.2440 nd         1 1CQ      -0.573800
     19 CAA         -1.0550     0.5220    -0.1580 cc         1 1CQ       0.602200
     20 NAH         -2.1390    -0.3180    -0.1810 nu         1 1CQ      -0.747300
     21 CAI         -3.4920    -0.0180    -0.1280 ca         1 1CQ       0.156600
     22 CAJ         -4.0100     1.2590     0.0910 ca         1 1CQ      -0.148000
     23 CAK         -5.3840     1.4610     0.1610 ca         1 1CQ      -0.156000
     24 CAL         -6.2740     0.4060     0.0120 ca         1 1CQ       0.095100
     25 OBA         -7.6200     0.5550     0.0730 oh         1 1CQ      -0.499100
     26 CAM         -5.7640    -0.8700    -0.2140 ca         1 1CQ      -0.156000
     27 CAN         -4.3990    -1.0740    -0.2830 ca         1 1CQ      -0.148000
     28 H1          -0.4050    -1.8300     1.7100 ha         1 1CQ       0.138000
     29 H2           0.3930    -4.1430     1.8320 ha         1 1CQ       0.139500
     30 H3           2.7990    -5.4250    -0.3950 ho         1 1CQ       0.426000
     31 H4           2.9150    -3.4420    -1.5650 ha         1 1CQ       0.139500
     32 H5           2.0850    -1.1460    -1.7040 ha         1 1CQ       0.138000
     33 H6           2.8640    -0.0750     1.3490 ha         1 1CQ       0.140500
     34 H7           5.2770     0.3370     1.4630 ha         1 1CQ       0.143500
     35 H8           6.8420     2.8900    -0.3810 ho         1 1CQ       0.428000
     36 H9           4.8550     3.5450    -1.3530 ha         1 1CQ       0.143500
     37 H10          2.4560     3.1140    -1.4860 ha         1 1CQ       0.140500
     38 H11          0.3360     3.2380    -0.1990 hn         1 1CQ       0.323700
     39 H12         -1.9150    -1.2930    -0.3010 hn         1 1CQ       0.447800
     40 H13         -3.3500     2.1040     0.2050 ha         1 1CQ       0.144500
     41 H14         -5.7540     2.4650     0.3360 ha         1 1CQ       0.136000
     42 H15         -7.8420     1.4740     0.2570 ho         1 1CQ       0.421000
     43 H16         -6.4390    -1.7080    -0.3370 ha         1 1CQ       0.136000
     44 H17         -4.0280    -2.0770    -0.4610 ha         1 1CQ       0.144500
@<TRIPOS>BOND
     1     1     2 ar  
     2     1     7 ar  
     3     1    28 1   
     4     2     3 ar  
     5     2    29 1   
     6     3     4 1   
     7     3     5 ar  
     8     4    30 1   
     9     5     6 ar  
    10     5    31 1   
    11     6     7 ar  
    12     6    32 1   
    13     7     8 1   
    14     8     9 2   
    15     8    19 1   
    16     9    10 1   
    17     9    17 1   
    18    10    11 ar  
    19    10    16 ar  
    20    11    12 ar  
    21    11    33 1   
    22    12    13 ar  
    23    12    34 1   
    24    13    14 1   
    25    13    15 ar  
    26    14    35 1   
    27    15    16 ar  
    28    15    36 1   
    29    16    37 1   
    30    17    18 1   
    31    17    38 1   
    32    18    19 2   
    33    19    20 1   
    34    20    21 1   
    35    20    39 1   
    36    21    22 ar  
    37    21    27 ar  
    38    22    23 ar  
    39    22    40 1   
    40    23    24 ar  
    41    23    41 1   
    42    24    25 1   
    43    24    26 ar  
    44    25    42 1   
    45    26    27 ar  
    46    26    43 1   
    47    27    44 1   
@<TRIPOS>SUBSTRUCTURE
     1 1CQ         1 TEMP              0 ****  ****    0 ROOT
