@<TRIPOS>MOLECULE
1CR
  175   188     1     0     0
SMALL
No Charge or Current Charge


@<TRIPOS>ATOM
      1 C01          1.1070     0.2570     4.2720 c3         1 1CR       0.023200
      2 C02          0.4300     1.4330     3.5670 ca         1 1CR      -0.031300
      3 C03          1.2120     2.1700     2.6520 ca         1 1CR      -0.191000
      4 C04          0.6430     3.1790     1.8500 ca         1 1CR       0.118100
      5 C05         -0.7340     3.4610     1.9830 ca         1 1CR       0.071100
      6 C06         -1.4990     2.7900     2.9470 ca         1 1CR      -0.087000
      7 C07         -0.9400     1.7670     3.7440 ca         1 1CR      -0.087300
      8 C08         -1.8710     1.0330     4.7190 c3         1 1CR       0.020200
      9 C09         -2.7040    -0.0230     3.9900 ca         1 1CR      -0.032300
     10 C10         -3.8910     0.4140     3.3640 ca         1 1CR      -0.192000
     11 C11         -4.6460    -0.4480     2.5450 ca         1 1CR       0.130100
     12 C12         -4.2020    -1.7750     2.3580 ca         1 1CR       0.068100
     13 C13         -3.0750    -2.2420     3.0470 ca         1 1CR      -0.090000
     14 C14         -2.3090    -1.3830     3.8650 ca         1 1CR      -0.099300
     15 C15         -1.0530    -1.9660     4.5250 c3         1 1CR       0.020200
     16 C16          0.1090    -2.0310     3.5330 ca         1 1CR      -0.023300
     17 C17          0.1730    -3.1580     2.6850 ca         1 1CR      -0.188000
     18 C18          1.1180    -3.2390     1.6430 ca         1 1CR       0.131100
     19 C19          2.0190    -2.1670     1.4560 ca         1 1CR       0.059100
     20 C20          2.0220    -1.0910     2.3530 ca         1 1CR      -0.090000
     21 C21          1.0740    -0.9990     3.3920 ca         1 1CR      -0.099300
     22 C22         -1.2800    -1.5550    -5.6500 c3         1 1CR       0.020200
     23 C23         -0.0790    -0.8470    -5.0140 ca         1 1CR      -0.080300
     24 C24          0.9100    -1.6530    -4.4130 ca         1 1CR      -0.088000
     25 C25          2.0420    -1.0970    -3.7990 ca         1 1CR       0.070100
     26 C26          2.2040     0.3110    -3.7760 ca         1 1CR       0.115100
     27 C27          1.2280     1.1210    -4.4000 ca         1 1CR      -0.183000
     28 C28          0.0960     0.5620    -5.0300 ca         1 1CR      -0.027300
     29 C29         -0.8720     1.5240    -5.7300 c3         1 1CR       0.021200
     30 C30         -1.9000     2.1130    -4.7630 ca         1 1CR      -0.099300
     31 C31         -1.5260     3.2660    -4.0450 ca         1 1CR      -0.093000
     32 C32         -2.3700     3.8460    -3.0880 ca         1 1CR       0.068100
     33 C33         -3.6400     3.2650    -2.8360 ca         1 1CR       0.136100
     34 C34         -4.0350     2.1330    -3.5850 ca         1 1CR      -0.186000
     35 C35         -3.1860     1.5530    -4.5520 ca         1 1CR      -0.027300
     36 C36         -3.7180     0.3470    -5.3360 c3         1 1CR       0.019200
     37 C37         -3.5660    -0.9630    -4.5610 ca         1 1CR      -0.091300
     38 C38         -4.6210    -1.3330    -3.7040 ca         1 1CR      -0.090000
     39 C39         -4.5610    -2.4890    -2.9140 ca         1 1CR       0.077100
     40 C40         -3.4090    -3.3150    -2.9760 ca         1 1CR       0.130100
     41 C41         -2.3630    -2.9660    -3.8610 ca         1 1CR      -0.188000
     42 C42         -2.4300    -1.8070    -4.6650 ca         1 1CR      -0.037300
     43 C47         -5.5860    -3.2490    -0.7660 c3         1 1CR       0.131600
     44 C51         -4.7160    -2.2770     0.0560 c3         1 1CR       0.134600
     45 C52          2.3460    -2.1340    -0.9530 c3         1 1CR       0.132600
     46 C56         -2.0490     5.2180    -1.0260 c3         1 1CR       0.132600
     47 C58         -1.4590     4.0190    -0.2560 c3         1 1CR       0.132600
     48 C60          3.4970    -1.8820    -1.9440 c3         1 1CR       0.133600
     49 O01          1.3980     3.8950     0.9340 os         1 1CR      -0.327100
     50 O02         -1.3670     4.3510     1.1430 os         1 1CR      -0.351100
     51 O03         -1.8890     4.9780    -2.4430 os         1 1CR      -0.347100
     52 O04         -5.8020    -0.0260     1.9080 os         1 1CR      -0.325100
     53 O05         -4.8160    -2.6120     1.4540 os         1 1CR      -0.346100
     54 O06         -5.6700    -2.7520    -2.1210 os         1 1CR      -0.348100
     55 O07          1.1850    -4.3390     0.8040 os         1 1CR      -0.329100
     56 O08          2.8850    -2.1150     0.3850 os         1 1CR      -0.352100
     57 O09          2.9810    -1.9790    -3.2900 os         1 1CR      -0.358100
     58 O10          3.3270     0.8690    -3.1880 os         1 1CR      -0.345100
     59 O11         -4.4780     3.8220    -1.8880 os         1 1CR      -0.336100
     60 O12         -3.3390    -4.4580    -2.2020 os         1 1CR      -0.336100
     61 C61         12.3910     0.4270     1.0900 ca         1 1CR      -0.320500
     62 C62         11.4770    -0.5190     0.5810 ca         1 1CR      -0.014500
     63 C64         10.3720    -0.0930    -0.1760 ca         1 1CR      -0.125000
     64 C65         10.1700     1.2750    -0.4360 ca         1 1CR      -0.028300
     65 C66         11.0820     2.2170     0.0750 ca         1 1CR      -0.125000
     66 C67         12.1890     1.8000     0.8340 ca         1 1CR      -0.014500
     67 N1          13.1520    -0.1740     3.5570 n8         1 1CR      -0.995100
     68 O13         14.1430    -1.5040     1.7340 o          1 1CR      -0.530000
     69 O14         14.7920     0.9500     2.1420 o          1 1CR      -0.530000
     70 C70          3.5190     2.2940    -3.0740 c3         1 1CR       0.141300
     71 C71          4.7770     2.5800    -2.2860 cc         1 1CR       0.194300
     72 C72          5.6460     1.6990    -1.7190 cd         1 1CR      -0.179000
     73 N2           5.1800     3.8640    -2.0440 nc         1 1CR      -0.353000
     74 N3           6.2800     3.8290    -1.3350 nd         1 1CR      -0.211800
     75 N4           6.5830     2.5090    -1.1220 na         1 1CR       0.114800
     76 CT5         -5.6960     3.1880    -1.4540 c3         1 1CR       0.148300
     77 CN5         -6.2680     3.9710    -0.2960 cc         1 1CR       0.150300
     78 CN6         -5.5950     4.5610     0.7320 cd         1 1CR      -0.187000
     79 NN7         -7.6150     4.1470    -0.1450 nc         1 1CR      -0.389000
     80 NN8         -7.8230     4.8390     0.9460 nd         1 1CR      -0.205800
     81 NN9         -6.5960     5.1060     1.5010 na         1 1CR       0.150800
     82 CI5         -6.4530     5.8720     2.7490 c3         1 1CR       0.090600
     83 CI6         -5.9090     7.3020     2.5300 c3         1 1CR      -0.234400
     84 CO5         -5.8330     8.0100     3.8820 c          1 1CR       0.726000
     85 O51         -4.8100     7.8860     4.5360 o          1 1CR      -0.729500
     86 O52         -6.8220     8.6090     4.2710 o          1 1CR      -0.729500
     87 CO3         -5.4450    -8.6630     3.3060 c          1 1CR       0.726000
     88 O31         -5.4690    -9.8710     3.4750 o          1 1CR      -0.729000
     89 O32         -5.6850    -7.8480     4.1820 o          1 1CR      -0.729000
     90 NN4         -1.8760    -7.6070    -1.2270 nc         1 1CR      -0.394000
     91 NN5         -2.2100    -8.3170    -0.1800 nd         1 1CR      -0.207800
     92 NN6         -2.9350    -7.5020     0.6530 na         1 1CR       0.150800
     93 CT3         -2.1530    -5.2690    -2.1080 c3         1 1CR       0.151300
     94 CN3         -2.3830    -6.3460    -1.0740 cc         1 1CR       0.149300
     95 CN4         -3.0540    -6.2450     0.1070 cd         1 1CR      -0.186000
     96 H01          2.1550     0.5170     4.4670 hc         1 1CR       0.048700
     97 H01A         0.7110     0.0820     5.2730 hc         1 1CR       0.048700
     98 H03          2.2630     1.9230     2.5520 ha         1 1CR       0.112000
     99 H06         -2.5520     3.0400     3.0420 ha         1 1CR       0.125000
    100 H08         -1.3430     0.6260     5.5830 hc         1 1CR       0.050200
    101 H08A        -2.5490     1.7670     5.1730 hc         1 1CR       0.050200
    102 H10         -4.1960     1.4460     3.4980 ha         1 1CR       0.118000
    103 H13         -2.7690    -3.2740     2.9030 ha         1 1CR       0.120000
    104 H15         -0.7870    -1.4510     5.4500 hc         1 1CR       0.050200
    105 H15A        -1.2810    -2.9820     4.8710 hc         1 1CR       0.050200
    106 H17         -0.5480    -3.9560     2.8320 ha         1 1CR       0.122000
    107 H20          2.7460    -0.2960     2.2040 ha         1 1CR       0.113000
    108 H22         -1.6190    -1.0520    -6.5570 hc         1 1CR       0.051200
    109 H22A        -0.9430    -2.5250    -6.0360 hc         1 1CR       0.051200
    110 H24          0.8040    -2.7350    -4.4240 ha         1 1CR       0.125000
    111 H27          1.3440     2.1990    -4.4240 ha         1 1CR       0.117000
    112 H29         -0.2890     2.3470    -6.1620 hc         1 1CR       0.050200
    113 H29A        -1.3340     1.0790    -6.6130 hc         1 1CR       0.050200
    114 H31         -0.5510     3.7160    -4.2150 ha         1 1CR       0.115000
    115 H34         -5.0140     1.6920    -3.4330 ha         1 1CR       0.122000
    116 H36         -4.7840     0.5130    -5.5380 hc         1 1CR       0.051200
    117 H36A        -3.2990     0.2830    -6.3420 hc         1 1CR       0.051200
    118 H38         -5.5060    -0.7060    -3.6360 ha         1 1CR       0.124000
    119 H41         -1.4880    -3.6020    -3.9520 ha         1 1CR       0.116000
    120 H46         -7.2450     1.4210     1.4720 h1         1 1CR       0.051367
    121 H46A        -6.5990     1.4820     3.1260 h1         1 1CR       0.051367
    122 H46B        -5.6100     2.0510     1.7570 h1         1 1CR       0.051367
    123 H47         -5.1810    -4.2660    -0.7210 h1         1 1CR       0.058700
    124 H47A        -6.5900    -3.2810    -0.3250 h1         1 1CR       0.058700
    125 H51         -3.6720    -2.3420    -0.2760 h1         1 1CR       0.061700
    126 H51A        -5.0670    -1.2550    -0.1300 h1         1 1CR       0.061700
    127 H52          1.5880    -1.3490    -1.0690 h1         1 1CR       0.061700
    128 H52A         1.8820    -3.1000    -1.1860 h1         1 1CR       0.061700
    129 H56         -3.0950     5.3800    -0.7480 h1         1 1CR       0.062700
    130 H56A        -1.4950     6.1220    -0.7440 h1         1 1CR       0.062700
    131 H57          2.9450     2.6070     0.3460 h1         1 1CR       0.042367
    132 H57A         3.1840     4.3210    -0.0570 h1         1 1CR       0.042367
    133 H57B         3.3760     3.7800     1.6220 h1         1 1CR       0.042367
    134 H58         -2.0980     3.1370    -0.3960 h1         1 1CR       0.056200
    135 H58A        -0.4710     3.7890    -0.6740 h1         1 1CR       0.056200
    136 H59          0.5740    -5.9700     1.9690 h1         1 1CR       0.051700
    137 H59A        -0.6930    -5.2500     0.9440 h1         1 1CR       0.051700
    138 H59B         0.5790    -6.2500     0.2150 h1         1 1CR       0.051700
    139 H60          3.9520    -0.9080    -1.7420 h1         1 1CR       0.054700
    140 H60A         4.2680    -2.6460    -1.7870 h1         1 1CR       0.054700
    141 H62         11.6150    -1.5830     0.7720 ha         1 1CR       0.137500
    142 H64          9.6730    -0.8310    -0.5610 ha         1 1CR       0.124500
    143 H66         10.9350     3.2780    -0.1170 ha         1 1CR       0.124500
    144 H67         12.8840     2.5470     1.2170 ha         1 1CR       0.137500
    145 H68          9.2380     2.6060    -1.8620 hc         1 1CR       0.073700
    146 H68A         8.6700     0.9490    -1.9580 hc         1 1CR       0.073700
    147 H69          7.4960     1.2250     0.2560 h1         1 1CR       0.072700
    148 H69A         8.0510     2.9070     0.3250 h1         1 1CR       0.072700
    149 HN1         12.3190     0.3970     3.4460 hn         1 1CR       0.475500
    150 HN1A        13.7950     0.4290     4.0660 hn         1 1CR       0.475500
    151 H70          3.6090     2.7540    -4.0660 h1         1 1CR       0.060700
    152 H70A         2.6710     2.7570    -2.5530 h1         1 1CR       0.060700
    153 H72          5.6700     0.6180    -1.6960 h4         1 1CR       0.182000
    154 HT5         -6.4280     3.1530    -2.2720 h1         1 1CR       0.049200
    155 HT5A        -5.4990     2.1620    -1.1180 h1         1 1CR       0.049200
    156 HN6         -4.5420     4.6260     0.9660 h4         1 1CR       0.176000
    157 HI5         -7.4330     5.9250     3.2410 h1         1 1CR       0.072700
    158 HI5A        -5.7780     5.3200     3.4140 h1         1 1CR       0.072700
    159 HI6         -4.9100     7.1850     2.0950 hc         1 1CR       0.037700
    160 HI6A        -6.6280     7.8030     1.8700 hc         1 1CR       0.037700
    161 HI3         -3.1780    -7.2600     2.7160 h1         1 1CR       0.073200
    162 HI3A        -3.0010    -8.9380     2.1800 h1         1 1CR       0.073200
    163 HI4         -5.2360    -8.8690     1.1530 hc         1 1CR       0.037700
    164 HI4A        -5.4220    -7.1400     1.7550 hc         1 1CR       0.037700
    165 HT3         -1.9220    -5.7310    -3.0760 h1         1 1CR       0.046200
    166 HT3A        -1.2930    -4.6610    -1.7960 h1         1 1CR       0.046200
    167 HN4         -3.5720    -5.4220     0.5790 h4         1 1CR       0.179000
    168 C68          8.9700     1.7330    -1.2530 c3         1 1CR      -0.062100
    169 CI4         -5.0080    -8.1390     1.9390 c3         1 1CR      -0.235400
    170 CI3         -3.4710    -7.9760     1.9390 c3         1 1CR       0.090600
    171 C46         -6.3380     1.2970     2.0770 c3         1 1CR       0.132900
    172 C57          2.7930     3.6340     0.7030 c3         1 1CR       0.138900
    173 C59          0.3710    -5.5080     0.9950 c3         1 1CR       0.132900
    174 C69          7.7680     2.0940    -0.3560 c3         1 1CR       0.083600
    175 S1          13.8000    -0.1190     2.0580 sy         1 1CR       1.139600
@<TRIPOS>BOND
     1     1     2 1   
     2     1    21 1   
     3     1    96 1   
     4     1    97 1   
     5     2     3 ar  
     6     2     7 ar  
     7     3     4 ar  
     8     3    98 1   
     9     4     5 ar  
    10     4    49 1   
    11     5     6 ar  
    12     5    50 1   
    13     6     7 ar  
    14     6    99 1   
    15     7     8 1   
    16     8     9 1   
    17     8   100 1   
    18     8   101 1   
    19     9    10 ar  
    20     9    14 ar  
    21    10    11 ar  
    22    10   102 1   
    23    11    12 ar  
    24    11    52 1   
    25    12    13 ar  
    26    12    53 1   
    27    13    14 ar  
    28    13   103 1   
    29    14    15 1   
    30    15    16 1   
    31    15   104 1   
    32    15   105 1   
    33    16    17 ar  
    34    16    21 ar  
    35    17    18 ar  
    36    17   106 1   
    37    18    19 ar  
    38    18    55 1   
    39    19    20 ar  
    40    19    56 1   
    41    20    21 ar  
    42    20   107 1   
    43    22    23 1   
    44    22    42 1   
    45    22   108 1   
    46    22   109 1   
    47    23    24 ar  
    48    23    28 ar  
    49    24    25 ar  
    50    24   110 1   
    51    25    26 ar  
    52    25    57 1   
    53    26    27 ar  
    54    26    58 1   
    55    27    28 ar  
    56    27   111 1   
    57    28    29 1   
    58    29    30 1   
    59    29   112 1   
    60    29   113 1   
    61    30    31 ar  
    62    30    35 ar  
    63    31    32 ar  
    64    31   114 1   
    65    32    33 ar  
    66    32    51 1   
    67    33    34 ar  
    68    33    59 1   
    69    34    35 ar  
    70    34   115 1   
    71    35    36 1   
    72    36    37 1   
    73    36   116 1   
    74    36   117 1   
    75    37    38 ar  
    76    37    42 ar  
    77    38    39 ar  
    78    38   118 1   
    79    39    40 ar  
    80    39    54 1   
    81    40    41 ar  
    82    40    60 1   
    83    41    42 ar  
    84    41   119 1   
    85    43    44 1   
    86    43    54 1   
    87    43   123 1   
    88    43   124 1   
    89    44    53 1   
    90    44   125 1   
    91    44   126 1   
    92    45    48 1   
    93    45    56 1   
    94    45   127 1   
    95    45   128 1   
    96    46    47 1   
    97    46    51 1   
    98    46   129 1   
    99    46   130 1   
   100    47    50 1   
   101    47   134 1   
   102    47   135 1   
   103    48    57 1   
   104    48   139 1   
   105    48   140 1   
   106    49   172 1   
   107    52   171 1   
   108    55   173 1   
   109    58    70 1   
   110    59    76 1   
   111    60    93 1   
   112    61    62 ar  
   113    61    66 ar  
   114    61   175 1   
   115    62    63 ar  
   116    62   141 1   
   117    63    64 ar  
   118    63   142 1   
   119    64    65 ar  
   120    64   168 1   
   121    65    66 ar  
   122    65   143 1   
   123    66   144 1   
   124    67   149 1   
   125    67   150 1   
   126    67   175 1   
   127    68   175 2   
   128    69   175 2   
   129    70    71 1   
   130    70   151 1   
   131    70   152 1   
   132    71    72 2   
   133    71    73 1   
   134    72    75 1   
   135    72   153 1   
   136    73    74 2   
   137    74    75 1   
   138    75   174 1   
   139    76    77 1   
   140    76   154 1   
   141    76   155 1   
   142    77    78 2   
   143    77    79 1   
   144    78    81 1   
   145    78   156 1   
   146    79    80 2   
   147    80    81 1   
   148    81    82 1   
   149    82    83 1   
   150    82   157 1   
   151    82   158 1   
   152    83    84 1   
   153    83   159 1   
   154    83   160 1   
   155    84    85 1   
   156    84    86 1   
   157    87    88 1   
   158    87    89 1   
   159    87   169 1   
   160    90    91 2   
   161    90    94 1   
   162    91    92 1   
   163    92    95 1   
   164    92   170 1   
   165    93    94 1   
   166    93   165 1   
   167    93   166 1   
   168    94    95 2   
   169    95   167 1   
   170   120   171 1   
   171   121   171 1   
   172   122   171 1   
   173   131   172 1   
   174   132   172 1   
   175   133   172 1   
   176   136   173 1   
   177   137   173 1   
   178   138   173 1   
   179   145   168 1   
   180   146   168 1   
   181   147   174 1   
   182   148   174 1   
   183   161   170 1   
   184   162   170 1   
   185   163   169 1   
   186   164   169 1   
   187   168   174 1   
   188   169   170 1   
@<TRIPOS>SUBSTRUCTURE
     1 1CR         1 TEMP              0 ****  ****    0 ROOT
