@<TRIPOS>MOLECULE
1CR
  175   188     1     0     0
SMALL
bcc


@<TRIPOS>ATOM
      1 C01          0.7950    -0.1950     4.7130 c3         1 1CR       0.023200
      2 C02          0.4970     1.0830     3.9620 ca         1 1CR      -0.031300
      3 C03          1.5200     1.6200     3.1750 ca         1 1CR      -0.209000
      4 C04          1.3500     2.7890     2.4490 ca         1 1CR       0.118100
      5 C05          0.1080     3.4390     2.5060 ca         1 1CR       0.071100
      6 C06         -0.8980     2.9080     3.2850 ca         1 1CR      -0.105000
      7 C07         -0.7320     1.7360     4.0270 ca         1 1CR      -0.087300
      8 C08         -1.8910     1.2640     4.8750 c3         1 1CR       0.020200
      9 C09         -2.8960     0.4280     4.1150 ca         1 1CR      -0.032300
     10 C10         -3.9160     1.1050     3.4400 ca         1 1CR      -0.210000
     11 C11         -4.8950     0.4340     2.7250 ca         1 1CR       0.130100
     12 C12         -4.8460    -0.9670     2.6730 ca         1 1CR       0.068100
     13 C13         -3.8410    -1.6330     3.3430 ca         1 1CR      -0.108000
     14 C14         -2.8570    -0.9640     4.0750 ca         1 1CR      -0.099300
     15 C15         -1.8170    -1.7940     4.7940 c3         1 1CR       0.020200
     16 C16         -0.6410    -2.1620     3.9200 ca         1 1CR      -0.023300
     17 C17         -0.7690    -3.3030     3.1220 ca         1 1CR      -0.206000
     18 C18          0.2460    -3.7290     2.2800 ca         1 1CR       0.131100
     19 C19          1.4330    -2.9840     2.2300 ca         1 1CR       0.059100
     20 C20          1.5620    -1.8650     3.0260 ca         1 1CR      -0.108000
     21 C21          0.5450    -1.4320     3.8810 ca         1 1CR      -0.099300
     22 C22         -0.7060    -1.5030    -4.4000 c3         1 1CR       0.020200
     23 C23          0.3630    -0.7620    -3.6290 ca         1 1CR      -0.080300
     24 C24          1.3130    -1.5150    -2.9350 ca         1 1CR      -0.106000
     25 C25          2.3520    -0.9350    -2.2360 ca         1 1CR       0.070100
     26 C26          2.4690     0.4610    -2.2200 ca         1 1CR       0.115100
     27 C27          1.5170     1.2170    -2.8840 ca         1 1CR      -0.201000
     28 C28          0.4660     0.6270    -3.5920 ca         1 1CR      -0.027300
     29 C29         -0.4970     1.5520    -4.2990 c3         1 1CR       0.021200
     30 C30         -1.6260     2.0330    -3.4170 ca         1 1CR      -0.099300
     31 C31         -1.3990     3.1530    -2.6140 ca         1 1CR      -0.111000
     32 C32         -2.3810     3.6970    -1.8120 ca         1 1CR       0.068100
     33 C33         -3.6540     3.1110    -1.7960 ca         1 1CR       0.136100
     34 C34         -3.8810     1.9860    -2.5720 ca         1 1CR      -0.204000
     35 C35         -2.8840     1.4360    -3.3830 ca         1 1CR      -0.027300
     36 C36         -3.2390     0.2160    -4.2000 c3         1 1CR       0.019200
     37 C37         -3.0470    -1.0830    -3.4500 ca         1 1CR      -0.091300
     38 C38         -4.0840    -1.5220    -2.6230 ca         1 1CR      -0.108000
     39 C39         -4.0250    -2.7160    -1.9340 ca         1 1CR       0.077100
     40 C40         -2.8920    -3.5280    -2.0710 ca         1 1CR       0.130100
     41 C41         -1.8490    -3.0900    -2.8700 ca         1 1CR      -0.206000
     42 C42         -1.9050    -1.8750    -3.5580 ca         1 1CR      -0.037300
     43 C47         -4.9850    -2.9880     0.2120 c3         1 1CR       0.108400
     44 C51         -5.7530    -1.7400     0.6260 c3         1 1CR       0.111400
     45 C52          2.3940    -3.1310     0.0700 c3         1 1CR       0.109400
     46 C56         -1.8610     4.6940     0.2710 c3         1 1CR       0.109400
     47 C58         -0.3560     4.5750     0.4780 c3         1 1CR       0.109400
     48 C60          3.2090    -1.8830    -0.2410 c3         1 1CR       0.110400
     49 O01          2.3010     3.3810     1.7070 os         1 1CR      -0.303900
     50 O02         -0.0570     4.6300     1.8680 os         1 1CR      -0.327900
     51 O03         -2.1550     4.8420    -1.1130 os         1 1CR      -0.323900
     52 O04         -5.9280     1.0200     2.0950 os         1 1CR      -0.301900
     53 O05         -5.8370    -1.6570     2.0430 os         1 1CR      -0.322900
     54 O06         -5.0830    -3.1520    -1.1990 os         1 1CR      -0.324900
     55 O07          0.1980    -4.8320     1.5130 os         1 1CR      -0.305900
     56 O08          2.4700    -3.4170     1.4620 os         1 1CR      -0.328900
     57 O09          3.3110    -1.7020    -1.6490 os         1 1CR      -0.334900
     58 O10          3.5380     0.9680    -1.5740 os         1 1CR      -0.321900
     59 O11         -4.5840     3.7200    -1.0330 os         1 1CR      -0.312900
     60 O12         -2.9210    -4.7070    -1.4200 os         1 1CR      -0.312900
     61 C61         13.6180     1.0050    -1.2490 ca         1 1CR      -0.320500
     62 C62         12.7590     0.1300    -1.8980 ca         1 1CR      -0.032500
     63 C64         11.4470     0.5160    -2.1250 ca         1 1CR      -0.143000
     64 C65         10.9890     1.7660    -1.7190 ca         1 1CR      -0.028300
     65 C66         11.8720     2.6280    -1.0730 ca         1 1CR      -0.143000
     66 C67         13.1840     2.2580    -0.8340 ca         1 1CR      -0.032500
     67 N1          15.3000    -0.2520     0.5380 n8         1 1CR      -0.884700
     68 O13         15.6670    -0.4860    -1.9070 o          1 1CR      -0.600800
     69 O14         16.0860     1.7140    -0.7550 o          1 1CR      -0.600800
     70 C70          3.8790     2.3180    -1.8040 c3         1 1CR       0.118100
     71 C71          5.2830     2.5040    -1.3550 cc         1 1CR       0.259600
     72 C72          6.3050     1.5930    -1.2910 cd         1 1CR      -0.211600
     73 N2           5.7680     3.7010    -0.9670 nc         1 1CR      -0.353000
     74 N3           7.0180     3.5770    -0.6760 nd         1 1CR      -0.211800
     75 N4           7.3530     2.3150    -0.8580 na         1 1CR       0.093400
     76 CT5         -5.9420     3.3960    -1.2470 c3         1 1CR       0.125100
     77 CN5         -6.7560     4.4530    -0.5920 cc         1 1CR       0.215600
     78 CN6         -6.4490     5.7690    -0.3580 cd         1 1CR      -0.219600
     79 NN7         -8.0060     4.2320    -0.1430 nc         1 1CR      -0.389000
     80 NN8         -8.4790     5.3310     0.3440 nd         1 1CR      -0.205800
     81 NN9         -7.5530     6.2600     0.2280 na         1 1CR       0.129400
     82 CI5         -7.8270     7.6340     0.6230 c3         1 1CR       0.061300
     83 CI6         -8.5110     8.4080    -0.4910 c3         1 1CR      -0.234400
     84 CO5         -8.8370     9.8660    -0.1190 c          1 1CR       0.936600
     85 O51         -8.4470    10.2700     0.9940 o          1 1CR      -0.834800
     86 O52         -9.4620    10.5190    -0.9760 o          1 1CR      -0.834800
     87 CO3         -6.4250   -11.1290    -0.2110 c          1 1CR       0.936600
     88 O31         -7.0970   -11.7520    -1.0540 o          1 1CR      -0.834300
     89 O32         -6.5330   -11.1920     1.0290 o          1 1CR      -0.834300
     90 NN4         -1.6870    -8.0740    -1.1160 nc         1 1CR      -0.394000
     91 NN5         -2.3620    -9.0280    -0.5640 nd         1 1CR      -0.207800
     92 NN6         -3.5590    -8.5660    -0.2730 na         1 1CR       0.129400
     93 CT3         -1.9850    -5.6980    -1.7840 c3         1 1CR       0.128100
     94 CN3         -2.4650    -6.9770    -1.1930 cc         1 1CR       0.214600
     95 CN4         -3.6860    -7.2820    -0.6500 cd         1 1CR      -0.218600
     96 H01          1.8460    -0.1840     5.0090 hc         1 1CR       0.048700
     97 H01A         0.2310    -0.2320     5.6440 hc         1 1CR       0.048700
     98 H03          2.4780     1.1150     3.1660 ha         1 1CR       0.130000
     99 H06         -1.8340     3.4530     3.3450 ha         1 1CR       0.143000
    100 H08         -1.5370     0.7290     5.7550 hc         1 1CR       0.050200
    101 H08A        -2.4060     2.1460     5.2630 hc         1 1CR       0.050200
    102 H10         -3.9490     2.1850     3.5140 ha         1 1CR       0.136000
    103 H13         -3.8500    -2.7170     3.3240 ha         1 1CR       0.138000
    104 H15         -1.4850    -1.2910     5.7000 hc         1 1CR       0.050200
    105 H15A        -2.2920    -2.7170     5.1330 hc         1 1CR       0.050200
    106 H17         -1.6830    -3.8780     3.1920 ha         1 1CR       0.140000
    107 H20          2.5050    -1.3310     3.0010 ha         1 1CR       0.131000
    108 H22         -1.0120    -0.9360    -5.2770 hc         1 1CR       0.051200
    109 H22A        -0.2680    -2.4230    -4.7910 hc         1 1CR       0.051200
    110 H24          1.2730    -2.5980    -2.9760 ha         1 1CR       0.143000
    111 H27          1.5930     2.2970    -2.8890 ha         1 1CR       0.135000
    112 H29          0.0590     2.4270    -4.6440 hc         1 1CR       0.050200
    113 H29A        -0.8820     1.0840    -5.2040 hc         1 1CR       0.050200
    114 H31         -0.4350     3.6480    -2.6460 ha         1 1CR       0.133000
    115 H34         -4.8620     1.5270    -2.5850 ha         1 1CR       0.140000
    116 H36         -4.2900     0.2910    -4.4890 hc         1 1CR       0.051200
    117 H36A        -2.6810     0.2070    -5.1340 hc         1 1CR       0.051200
    118 H38         -4.9910    -0.9340    -2.5450 ha         1 1CR       0.142000
    119 H41         -0.9700    -3.7110    -2.9920 ha         1 1CR       0.134000
    120 H46         -7.0200     2.6750     1.7420 h1         1 1CR       0.051367
    121 H46A        -6.1350     2.7230     3.2780 h1         1 1CR       0.051367
    122 H46B        -5.2720     2.9670     1.7420 h1         1 1CR       0.051367
    123 H47         -3.9410    -2.9280     0.5340 h1         1 1CR       0.058700
    124 H47A        -5.4280    -3.8700     0.6780 h1         1 1CR       0.058700
    125 H51         -5.2910    -0.8450     0.1990 h1         1 1CR       0.061700
    126 H51A        -6.7760    -1.8000     0.2510 h1         1 1CR       0.061700
    127 H52          1.3550    -3.0080    -0.2540 h1         1 1CR       0.061700
    128 H52A         2.8100    -3.9880    -0.4630 h1         1 1CR       0.061700
    129 H56         -2.3810     3.8300     0.6980 h1         1 1CR       0.062700
    130 H56A        -2.2310     5.5890     0.7720 h1         1 1CR       0.062700
    131 H57          3.6670     1.8580     1.2930 h1         1 1CR       0.042367
    132 H57A         4.2400     3.5320     1.1870 h1         1 1CR       0.042367
    133 H57B         3.9870     2.7880     2.7760 h1         1 1CR       0.042367
    134 H58          0.0260     3.6550     0.0230 h1         1 1CR       0.056200
    135 H58A         0.1480     5.4190     0.0040 h1         1 1CR       0.056200
    136 H59         -1.0710    -6.0280     2.6550 h1         1 1CR       0.051700
    137 H59A        -1.8480    -5.1800     1.2980 h1         1 1CR       0.051700
    138 H59B        -0.7430    -6.5330     0.9890 h1         1 1CR       0.051700
    139 H60          2.7740    -1.0050     0.2460 h1         1 1CR       0.054700
    140 H60A         4.2260    -2.0050     0.1370 h1         1 1CR       0.054700
    141 H62         13.0980    -0.8410    -2.2330 ha         1 1CR       0.155500
    142 H64         10.7780    -0.1620    -2.6390 ha         1 1CR       0.142500
    143 H66         11.5350     3.6090    -0.7570 ha         1 1CR       0.142500
    144 H67         13.8560     2.9460    -0.3380 ha         1 1CR       0.155500
    145 H68          9.5010     3.2350    -2.1710 hc         1 1CR       0.073700
    146 H68A         9.1360     1.6250    -2.7810 hc         1 1CR       0.073700
    147 H69          8.7230     0.8290    -0.4460 h1         1 1CR       0.072700
    148 H69A         9.1300     2.4240     0.1780 h1         1 1CR       0.072700
    149 HN1         14.7580    -1.1080     0.5550 hn         1 1CR       0.420300
    150 HN1A        15.0520     0.3530     1.3120 hn         1 1CR       0.420300
    151 H70          3.7970     2.5580    -2.8710 h1         1 1CR       0.060700
    152 H70A         3.2110     3.0020    -1.2660 h1         1 1CR       0.060700
    153 H72          6.3650     0.5390    -1.5010 h4         1 1CR       0.200000
    154 HT5         -6.1610     3.3610    -2.3210 h1         1 1CR       0.049200
    155 HT5A        -6.1960     2.4130    -0.8340 h1         1 1CR       0.049200
    156 HN6         -5.5710     6.3630    -0.5480 h4         1 1CR       0.194000
    157 HI5         -8.4440     7.5940     1.5180 h1         1 1CR       0.072700
    158 HI5A        -6.8770     8.0880     0.8960 h1         1 1CR       0.072700
    159 HI6         -7.8740     8.4080    -1.3820 hc         1 1CR       0.037700
    160 HI6A        -9.4330     7.8950    -0.7830 hc         1 1CR       0.037700
    161 HI3         -5.2320    -8.8170     0.9030 h1         1 1CR       0.073200
    162 HI3A        -4.0620   -10.1270     0.9690 h1         1 1CR       0.073200
    163 HI4         -4.6560   -10.7560    -1.3960 hc         1 1CR       0.037700
    164 HI4A        -5.8290    -9.4630    -1.4470 hc         1 1CR       0.037700
    165 HT3         -1.9160    -5.7850    -2.8750 h1         1 1CR       0.046200
    166 HT3A        -0.9810    -5.4590    -1.4140 h1         1 1CR       0.046200
    167 HN4         -4.5860    -6.7110    -0.5000 h4         1 1CR       0.197000
    168 C68          9.5590     2.1700    -1.9360 c3         1 1CR      -0.062100
    169 CI4         -5.3490   -10.1810    -0.7750 c3         1 1CR      -0.235400
    170 CI3         -4.5740    -9.4390     0.3000 c3         1 1CR       0.061300
    171 C46         -6.0830     2.4180     2.2290 c3         1 1CR       0.109700
    172 C57          3.6100     2.8500     1.7520 c3         1 1CR       0.115700
    173 C59         -0.9300    -5.6750     1.6290 c3         1 1CR       0.109700
    174 C69          8.7280     1.8920    -0.6830 c3         1 1CR       0.054300
    175 S1          15.2880     0.5100    -0.9190 sy         1 1CR       1.281200
@<TRIPOS>BOND
     1     1     2 1   
     2     1    21 1   
     3     1    96 1   
     4     1    97 1   
     5     2     3 ar  
     6     2     7 ar  
     7     3     4 ar  
     8     3    98 1   
     9     4     5 ar  
    10     4    49 1   
    11     5     6 ar  
    12     5    50 1   
    13     6     7 ar  
    14     6    99 1   
    15     7     8 1   
    16     8     9 1   
    17     8   100 1   
    18     8   101 1   
    19     9    10 ar  
    20     9    14 ar  
    21    10    11 ar  
    22    10   102 1   
    23    11    12 ar  
    24    11    52 1   
    25    12    13 ar  
    26    12    53 1   
    27    13    14 ar  
    28    13   103 1   
    29    14    15 1   
    30    15    16 1   
    31    15   104 1   
    32    15   105 1   
    33    16    17 ar  
    34    16    21 ar  
    35    17    18 ar  
    36    17   106 1   
    37    18    19 ar  
    38    18    55 1   
    39    19    20 ar  
    40    19    56 1   
    41    20    21 ar  
    42    20   107 1   
    43    22    23 1   
    44    22    42 1   
    45    22   108 1   
    46    22   109 1   
    47    23    24 ar  
    48    23    28 ar  
    49    24    25 ar  
    50    24   110 1   
    51    25    26 ar  
    52    25    57 1   
    53    26    27 ar  
    54    26    58 1   
    55    27    28 ar  
    56    27   111 1   
    57    28    29 1   
    58    29    30 1   
    59    29   112 1   
    60    29   113 1   
    61    30    31 ar  
    62    30    35 ar  
    63    31    32 ar  
    64    31   114 1   
    65    32    33 ar  
    66    32    51 1   
    67    33    34 ar  
    68    33    59 1   
    69    34    35 ar  
    70    34   115 1   
    71    35    36 1   
    72    36    37 1   
    73    36   116 1   
    74    36   117 1   
    75    37    38 ar  
    76    37    42 ar  
    77    38    39 ar  
    78    38   118 1   
    79    39    40 ar  
    80    39    54 1   
    81    40    41 ar  
    82    40    60 1   
    83    41    42 ar  
    84    41   119 1   
    85    43    44 1   
    86    43    54 1   
    87    43   123 1   
    88    43   124 1   
    89    44    53 1   
    90    44   125 1   
    91    44   126 1   
    92    45    48 1   
    93    45    56 1   
    94    45   127 1   
    95    45   128 1   
    96    46    47 1   
    97    46    51 1   
    98    46   129 1   
    99    46   130 1   
   100    47    50 1   
   101    47   134 1   
   102    47   135 1   
   103    48    57 1   
   104    48   139 1   
   105    48   140 1   
   106    49   172 1   
   107    52   171 1   
   108    55   173 1   
   109    58    70 1   
   110    59    76 1   
   111    60    93 1   
   112    61    62 ar  
   113    61    66 ar  
   114    61   175 1   
   115    62    63 ar  
   116    62   141 1   
   117    63    64 ar  
   118    63   142 1   
   119    64    65 ar  
   120    64   168 1   
   121    65    66 ar  
   122    65   143 1   
   123    66   144 1   
   124    67   149 1   
   125    67   150 1   
   126    67   175 1   
   127    68   175 2   
   128    69   175 2   
   129    70    71 1   
   130    70   151 1   
   131    70   152 1   
   132    71    72 2   
   133    71    73 1   
   134    72    75 1   
   135    72   153 1   
   136    73    74 2   
   137    74    75 1   
   138    75   174 1   
   139    76    77 1   
   140    76   154 1   
   141    76   155 1   
   142    77    78 2   
   143    77    79 1   
   144    78    81 1   
   145    78   156 1   
   146    79    80 2   
   147    80    81 1   
   148    81    82 1   
   149    82    83 1   
   150    82   157 1   
   151    82   158 1   
   152    83    84 1   
   153    83   159 1   
   154    83   160 1   
   155    84    85 1   
   156    84    86 1   
   157    87    88 1   
   158    87    89 1   
   159    87   169 1   
   160    90    91 2   
   161    90    94 1   
   162    91    92 1   
   163    92    95 1   
   164    92   170 1   
   165    93    94 1   
   166    93   165 1   
   167    93   166 1   
   168    94    95 2   
   169    95   167 1   
   170   120   171 1   
   171   121   171 1   
   172   122   171 1   
   173   131   172 1   
   174   132   172 1   
   175   133   172 1   
   176   136   173 1   
   177   137   173 1   
   178   138   173 1   
   179   145   168 1   
   180   146   168 1   
   181   147   174 1   
   182   148   174 1   
   183   161   170 1   
   184   162   170 1   
   185   163   169 1   
   186   164   169 1   
   187   168   174 1   
   188   169   170 1   
@<TRIPOS>SUBSTRUCTURE
     1 1CR         1 TEMP              0 ****  ****    0 ROOT
