@<TRIPOS>MOLECULE
1CS
   35    36     1     0     0
SMALL
abcg2


@<TRIPOS>ATOM
      1 C5           3.2590    -0.5610    -3.2630 c3         1 1CS       0.160900
      2 O4           2.3740    -0.1220    -4.2950 os         1 1CS      -0.425300
      3 C4           1.1030     0.0390    -4.0080 ca         1 1CS       0.407300
      4 N5           0.3540     0.4450    -5.0260 nb         1 1CS      -0.250000
      5 C6          -0.9290     0.6070    -4.7400 ca         1 1CS       0.223300
      6 C7          -1.8430     1.0280    -5.8390 c3         1 1CS      -0.141400
      7 N1          -1.4660     0.3930    -3.5430 nb         1 1CS      -0.304000
      8 C2          -0.6120    -0.0090    -2.6090 ca         1 1CS       0.323900
      9 N10         -1.1870    -0.2130    -1.3800 ns         1 1CS      -0.317900
     10 C9          -0.5860    -0.6490    -0.2230 c          1 1CS       0.697100
     11 O9           0.5590    -1.0000    -0.1000 o          1 1CS      -0.538100
     12 N8          -1.4680    -0.6330     0.8420 ns         1 1CS      -0.602300
     13 S7          -1.0320    -1.1700     2.3610 sy         1 1CS       1.204300
     14 O7A         -2.1970    -0.9070     3.1800 o          1 1CS      -0.519500
     15 O7B         -0.5140    -2.5160     2.2680 o          1 1CS      -0.519500
     16 C12          0.2990    -0.1010     2.8320 ca         1 1CS      -0.279500
     17 C3           1.5300    -0.6820     3.1100 ca         1 1CS       0.012000
     18 C10          2.5870     0.1070     3.5330 ca         1 1CS      -0.127000
     19 C8           2.4140     1.4760     3.6700 ca         1 1CS      -0.044000
     20 C11          1.1900     2.0630     3.3870 ca         1 1CS      -0.125000
     21 C1           0.1280     1.2750     2.9730 ca         1 1CS       0.204000
     22 N3           0.6820    -0.2030    -2.7800 nb         1 1CS      -0.301000
     23 CL11        -1.3710     2.0460     2.6180 cl         1 1CS      -0.178000
     24 H5'1         4.2370    -0.6330    -3.7290 h1         1 1CS       0.057700
     25 H5'2         3.2960     0.1520    -2.4410 h1         1 1CS       0.057700
     26 H5'3         2.9650    -1.5350    -2.8750 h1         1 1CS       0.057700
     27 H7'1        -2.2730     0.1410    -6.3090 hc         1 1CS       0.067700
     28 H7'2        -2.6650     1.6290    -5.4560 hc         1 1CS       0.067700
     29 H7'3        -1.3050     1.5820    -6.6050 hc         1 1CS       0.067700
     30 H10         -2.1780    -0.0170    -1.3630 hn         1 1CS       0.179000
     31 HN8         -2.4120    -0.2720     0.7610 hn         1 1CS       0.350500
     32 H3           1.6660    -1.7470     2.9950 ha         1 1CS       0.152000
     33 H4           3.5420    -0.3490     3.7510 ha         1 1CS       0.127000
     34 H5           3.2360     2.0990     3.9950 ha         1 1CS       0.123000
     35 H6           1.0570     3.1310     3.4890 ha         1 1CS       0.133000
@<TRIPOS>BOND
     1     1     2 1   
     2     1    24 1   
     3     1    25 1   
     4     1    26 1   
     5     2     3 1   
     6     3     4 ar  
     7     3    22 ar  
     8     4     5 ar  
     9     5     6 1   
    10     5     7 ar  
    11     6    27 1   
    12     6    28 1   
    13     6    29 1   
    14     7     8 ar  
    15     8     9 1   
    16     8    22 ar  
    17     9    10 1   
    18     9    30 1   
    19    10    11 2   
    20    10    12 1   
    21    12    13 1   
    22    12    31 1   
    23    13    14 2   
    24    13    15 2   
    25    13    16 1   
    26    16    17 ar  
    27    16    21 ar  
    28    17    18 ar  
    29    17    32 1   
    30    18    19 ar  
    31    18    33 1   
    32    19    20 ar  
    33    19    34 1   
    34    20    21 ar  
    35    20    35 1   
    36    21    23 1   
@<TRIPOS>SUBSTRUCTURE
     1 1CS         1 TEMP              0 ****  ****    0 ROOT
