@<TRIPOS>MOLECULE
1CS
   35    36     1     0     0
SMALL
No Charge or Current Charge


@<TRIPOS>ATOM
      1 C5           3.4170     0.1510    -3.1700 c3         1 1CS       0.160900
      2 O4           2.4670     0.2700    -4.2500 os         1 1CS      -0.425300
      3 C4           1.1090     0.2390    -4.0170 ca         1 1CS       0.407300
      4 N5           0.3060     0.3430    -5.0970 nb         1 1CS      -0.250000
      5 C6          -1.0210     0.3160    -4.8500 ca         1 1CS       0.223300
      6 C7          -1.9590     0.4290    -6.0360 c3         1 1CS      -0.141400
      7 N1          -1.5760     0.1890    -3.6290 nb         1 1CS      -0.304000
      8 C2          -0.6870     0.0790    -2.6290 ca         1 1CS       0.323900
      9 N10         -1.2420    -0.0090    -1.3430 ns         1 1CS      -0.317900
     10 C9          -0.7390    -0.5810    -0.2010 c          1 1CS       0.697100
     11 O9           0.3350    -1.1560    -0.1310 o          1 1CS      -0.538100
     12 N8          -1.5770    -0.4390     0.8480 ns         1 1CS      -0.602300
     13 S7          -1.3000    -0.9300     2.4190 sy         1 1CS       1.204300
     14 O7A         -2.4000    -0.3490     3.1960 o          1 1CS      -0.519500
     15 O7B         -1.0980    -2.3830     2.3700 o          1 1CS      -0.519500
     16 C12          0.2460    -0.1450     2.9080 ca         1 1CS      -0.279500
     17 C3           1.3510    -0.9530     3.2630 ca         1 1CS       0.012000
     18 C10          2.5670    -0.3610     3.6420 ca         1 1CS      -0.127000
     19 C8           2.6950     1.0360     3.6680 ca         1 1CS      -0.044000
     20 C11          1.6020     1.8420     3.3090 ca         1 1CS      -0.125000
     21 C1           0.3800     1.2610     2.9290 ca         1 1CS       0.204000
     22 N3           0.6520     0.1120    -2.7510 nb         1 1CS      -0.301000
     23 Cl11        -0.9310     2.3490     2.4680 cl         1 1CS      -0.178000
     24 H5'1         4.4430     0.1950    -3.5560 h1         1 1CS       0.057700
     25 H5'2         3.2920     0.9670    -2.4460 h1         1 1CS       0.057700
     26 H5'3         3.2930    -0.8040    -2.6430 h1         1 1CS       0.057700
     27 H7'1        -2.2510    -0.5640    -6.3950 hc         1 1CS       0.067700
     28 H7'2        -2.8740     0.9720    -5.7700 hc         1 1CS       0.067700
     29 H7'3        -1.4900     0.9640    -6.8700 hc         1 1CS       0.067700
     30 H10         -2.1700     0.3820    -1.2650 hn         1 1CS       0.179000
     31 HN8         -2.4330     0.0790     0.7600 hn         1 1CS       0.350500
     32 H3           1.2780    -2.0400     3.2480 ha         1 1CS       0.152000
     33 H4           3.4130    -0.9880     3.9160 ha         1 1CS       0.127000
     34 H5           3.6380     1.4940     3.9610 ha         1 1CS       0.123000
     35 H6           1.7030     2.9240     3.3230 ha         1 1CS       0.133000
@<TRIPOS>BOND
     1     1     2 1   
     2     1    24 1   
     3     1    25 1   
     4     1    26 1   
     5     2     3 1   
     6     3     4 ar  
     7     3    22 ar  
     8     4     5 ar  
     9     5     6 1   
    10     5     7 ar  
    11     6    27 1   
    12     6    28 1   
    13     6    29 1   
    14     7     8 ar  
    15     8     9 1   
    16     8    22 ar  
    17     9    10 1   
    18     9    30 1   
    19    10    11 2   
    20    10    12 1   
    21    12    13 1   
    22    12    31 1   
    23    13    14 2   
    24    13    15 2   
    25    13    16 1   
    26    16    17 ar  
    27    16    21 ar  
    28    17    18 ar  
    29    17    32 1   
    30    18    19 ar  
    31    18    33 1   
    32    19    20 ar  
    33    19    34 1   
    34    20    21 ar  
    35    20    35 1   
    36    21    23 1   
@<TRIPOS>SUBSTRUCTURE
     1 1CS         1 TEMP              0 ****  ****    0 ROOT
