@<TRIPOS>MOLECULE
1CT
   36    37     1     0     0
SMALL
No Charge or Current Charge


@<TRIPOS>ATOM
      1 OAA          0.2060    -1.7090    -0.0070 o          1 1CT      -0.486100
      2 OAB         -4.0330    -1.9730    -0.9060 o          1 1CT      -0.920167
      3 OAC         -6.0200    -1.4270     0.3950 o          1 1CT      -0.920167
      4 OAD         -3.8630    -1.6700     1.5020 o          1 1CT      -0.920167
      5 FAE          3.7900     2.0420    -0.8690 f          1 1CT      -0.116000
      6 FAF          5.5780     1.8300     0.3360 f          1 1CT      -0.116000
      7 FAG          3.6290     1.6430     1.2640 f          1 1CT      -0.116000
      8 CAH          4.3340    -2.9590    -0.6570 ca         1 1CT      -0.080000
      9 CAI         -3.7660     3.3570    -0.3660 ca         1 1CT      -0.139000
     10 CAJ          5.5380    -2.2820    -0.4330 ca         1 1CT      -0.139000
     11 CAK         -5.0700     2.8700    -0.2120 ca         1 1CT      -0.188000
     12 CAL          3.1190    -2.2590    -0.6190 ca         1 1CT      -0.098000
     13 CAM         -2.6800     2.4700    -0.3320 ca         1 1CT      -0.255000
     14 CAN          5.5310    -0.9030    -0.1770 ca         1 1CT      -0.071000
     15 CAO         -5.2910     1.4960    -0.0240 ca         1 1CT      -0.062000
     16 CAP         -0.4560     0.6290    -0.2620 c3         1 1CT       0.107600
     17 NAQ          1.8700    -0.1420    -0.3180 ns         1 1CT      -0.226000
     18 OAR         -1.8260     0.1960    -0.1070 os         1 1CT      -0.251100
     19 CAS          0.5470    -0.5440    -0.1850 c          1 1CT       0.599100
     20 CAT          3.0920    -0.8710    -0.3500 ca         1 1CT       0.039000
     21 CAU         -2.8900     1.0810    -0.1430 ca         1 1CT       0.159100
     22 CAV          4.3150    -0.1790    -0.1360 ca         1 1CT      -0.209300
     23 CAW         -4.2070     0.5910     0.0130 ca         1 1CT      -0.101500
     24 CAX          4.3320     1.3360     0.1490 c3         1 1CT       0.360300
     25 PAY         -4.5500    -1.2020     0.2630 p5         1 1CT       1.161000
     26 HAH          4.3400    -4.0270    -0.8660 ha         1 1CT       0.112000
     27 HAI         -3.5970     4.4210    -0.5120 ha         1 1CT       0.053000
     28 HAJ          6.4800    -2.8240    -0.4630 ha         1 1CT       0.103000
     29 HAK         -5.9130     3.5570    -0.2380 ha         1 1CT       0.063000
     30 HAL          2.2070    -2.8110    -0.8190 ha         1 1CT       0.148000
     31 HAM         -1.6830     2.8810    -0.4550 ha         1 1CT       0.060000
     32 HAN          6.4840    -0.4050    -0.0110 ha         1 1CT       0.115000
     33 HAO         -6.3090     1.1330     0.0950 ha         1 1CT       0.140000
     34 HAP         -0.3160     1.1210    -1.2330 h1         1 1CT       0.018200
     35 HAPA        -0.1890     1.3450     0.5250 h1         1 1CT       0.018200
     36 HNAQ         1.9890     0.8580    -0.4170 hn         1 1CT       0.157000
@<TRIPOS>BOND
     1     1    19 2   
     2     2    25 1   
     3     3    25 1   
     4     4    25 1   
     5     5    24 1   
     6     6    24 1   
     7     7    24 1   
     8     8    10 ar  
     9     8    12 ar  
    10     8    26 1   
    11     9    11 ar  
    12     9    13 ar  
    13     9    27 1   
    14    10    14 ar  
    15    10    28 1   
    16    11    15 ar  
    17    11    29 1   
    18    12    20 ar  
    19    12    30 1   
    20    13    21 ar  
    21    13    31 1   
    22    14    22 ar  
    23    14    32 1   
    24    15    23 ar  
    25    15    33 1   
    26    16    18 1   
    27    16    19 1   
    28    16    34 1   
    29    16    35 1   
    30    17    19 1   
    31    17    20 1   
    32    17    36 1   
    33    18    21 1   
    34    20    22 ar  
    35    21    23 ar  
    36    22    24 1   
    37    23    25 1   
@<TRIPOS>SUBSTRUCTURE
     1 1CT         1 TEMP              0 ****  ****    0 ROOT
