@<TRIPOS>MOLECULE
1CT
   36    37     1     0     0
SMALL
abcg2


@<TRIPOS>ATOM
      1 OAA          0.5580    -1.1140     0.6360 o          1 1CT      -0.486100
      2 OAB         -3.5580    -2.0560    -0.5320 o          1 1CT      -0.920167
      3 OAC         -5.6480    -1.4320     0.8020 o          1 1CT      -0.920167
      4 OAD         -3.3660    -1.3930     1.9550 o          1 1CT      -0.920167
      5 FAE          3.8160     2.0380    -0.2680 f          1 1CT      -0.116000
      6 FAF          5.1050     1.3910     1.3230 f          1 1CT      -0.116000
      7 FAG          2.9770     1.1850     1.5210 f          1 1CT      -0.116000
      8 CAH          4.1830    -2.8280    -1.0840 ca         1 1CT      -0.080000
      9 CAI         -3.7580     3.2520    -0.5790 ca         1 1CT      -0.139000
     10 CAJ          5.2640    -2.3330    -0.3710 ca         1 1CT      -0.139000
     11 CAK         -4.9910     2.6990    -0.2880 ca         1 1CT      -0.188000
     12 CAL          3.0460    -2.0500    -1.2440 ca         1 1CT      -0.098000
     13 CAM         -2.6100     2.4660    -0.5120 ca         1 1CT      -0.255000
     14 CAN          5.2070    -1.0650     0.1870 ca         1 1CT      -0.071000
     15 CAO         -5.0620     1.3530     0.0690 ca         1 1CT      -0.062000
     16 CAP         -0.3760     0.8440    -0.4130 c3         1 1CT       0.107600
     17 NAQ          1.8170     0.0030    -0.8740 ns         1 1CT      -0.226000
     18 OAR         -1.6160     0.3170    -0.0580 os         1 1CT      -0.251100
     19 CAS          0.6850    -0.2100    -0.1600 c          1 1CT       0.599100
     20 CAT          2.9810    -0.7800    -0.6920 ca         1 1CT       0.039000
     21 CAU         -2.7030     1.1240    -0.1470 ca         1 1CT       0.159100
     22 CAV          4.0660    -0.2870     0.0370 ca         1 1CT      -0.209300
     23 CAW         -3.9420     0.5330     0.1500 ca         1 1CT      -0.101500
     24 CAX          3.9920     1.0790     0.6530 c3         1 1CT       0.360300
     25 PAY         -4.1310    -1.2620     0.6400 p5         1 1CT       1.161000
     26 HAH          4.2250    -3.8160    -1.5220 ha         1 1CT       0.112000
     27 HAI         -3.6700     4.2930    -0.8610 ha         1 1CT       0.053000
     28 HAJ          6.1560    -2.9320    -0.2470 ha         1 1CT       0.103000
     29 HAK         -5.8890     3.3010    -0.3410 ha         1 1CT       0.063000
     30 HAL          2.2030    -2.4220    -1.8110 ha         1 1CT       0.148000
     31 HAM         -1.6600     2.9260    -0.7500 ha         1 1CT       0.060000
     32 HAN          6.0580    -0.6960     0.7420 ha         1 1CT       0.115000
     33 HAO         -6.0250     0.9130     0.2930 ha         1 1CT       0.140000
     34 HAP         -0.3490     1.1650    -1.4630 h1         1 1CT       0.018200
     35 HAPA        -0.1040     1.7210     0.1910 h1         1 1CT       0.018200
     36 HNAQ         1.8410     0.7450    -1.5570 hn         1 1CT       0.157000
@<TRIPOS>BOND
     1     1    19 2   
     2     2    25 1   
     3     3    25 1   
     4     4    25 1   
     5     5    24 1   
     6     6    24 1   
     7     7    24 1   
     8     8    10 ar  
     9     8    12 ar  
    10     8    26 1   
    11     9    11 ar  
    12     9    13 ar  
    13     9    27 1   
    14    10    14 ar  
    15    10    28 1   
    16    11    15 ar  
    17    11    29 1   
    18    12    20 ar  
    19    12    30 1   
    20    13    21 ar  
    21    13    31 1   
    22    14    22 ar  
    23    14    32 1   
    24    15    23 ar  
    25    15    33 1   
    26    16    18 1   
    27    16    19 1   
    28    16    34 1   
    29    16    35 1   
    30    17    19 1   
    31    17    20 1   
    32    17    36 1   
    33    18    21 1   
    34    20    22 ar  
    35    21    23 ar  
    36    22    24 1   
    37    23    25 1   
@<TRIPOS>SUBSTRUCTURE
     1 1CT         1 TEMP              0 ****  ****    0 ROOT
