@<TRIPOS>MOLECULE
1CW
   17    17     1     0     0
SMALL
No Charge or Current Charge


@<TRIPOS>ATOM
      1 O           -2.2000    -1.3710     0.1830 o          1 1CW      -0.701000
      2 C5          -1.9750    -0.1690     0.1330 c          1 1CW       0.722600
      3 O1          -2.8570     0.6760     0.1340 o          1 1CW      -0.701000
      4 C4          -0.5290     0.2870     0.0680 ca         1 1CW      -0.245600
      5 C3          -0.2290     1.6700     0.0090 ca         1 1CW      -0.062000
      6 C2           1.1010     2.1180    -0.0510 ca         1 1CW      -0.180000
      7 C1           2.1600     1.1990    -0.0550 ca         1 1CW      -0.147000
      8 C6           0.5480    -0.6360     0.0630 ca         1 1CW       0.170100
      9 O2           0.2790    -1.9790     0.1230 oh         1 1CW      -0.644100
     10 C            1.8990    -0.1790     0.0000 ca         1 1CW       0.173000
     11 N            2.9660    -1.0570    -0.0050 nv         1 1CW      -1.054000
     12 H2          -1.0280     2.4090     0.0110 ha         1 1CW       0.119000
     13 H3           1.3090     3.1850    -0.0940 ha         1 1CW       0.084000
     14 H4           3.1840     1.5620    -0.1020 ha         1 1CW       0.080000
     15 H5          -0.7210    -2.0260     0.1580 ho         1 1CW       0.548000
     16 H6           2.7850    -2.0490     0.1390 hn         1 1CW       0.419000
     17 H7           3.9200    -0.7170     0.1020 hn         1 1CW       0.419000
@<TRIPOS>BOND
     1     1     2 1   
     2     2     3 1   
     3     2     4 1   
     4     4     5 ar  
     5     4     8 ar  
     6     5     6 ar  
     7     5    12 1   
     8     6     7 ar  
     9     6    13 1   
    10     7    10 ar  
    11     7    14 1   
    12     8     9 1   
    13     8    10 ar  
    14     9    15 1   
    15    10    11 1   
    16    11    16 1   
    17    11    17 1   
@<TRIPOS>SUBSTRUCTURE
     1 1CW         1 TEMP              0 ****  ****    0 ROOT
