@<TRIPOS>MOLECULE
1CW
   17    17     1     0     0
SMALL
bcc


@<TRIPOS>ATOM
      1 O           -2.0700    -1.4380     0.1810 o          1 1CW      -0.806300
      2 C5          -1.9220    -0.1740     0.1410 c          1 1CW       0.933200
      3 O1          -2.8450     0.6460     0.1600 o          1 1CW      -0.806300
      4 C4          -0.5000     0.3180     0.0650 ca         1 1CW      -0.245600
      5 C3          -0.2130     1.6860     0.0230 ca         1 1CW      -0.080000
      6 C2           1.0950     2.1200    -0.0480 ca         1 1CW      -0.198000
      7 C1           2.1370     1.1940    -0.0760 ca         1 1CW      -0.165000
      8 C6           0.5480    -0.6090     0.0290 ca         1 1CW       0.170100
      9 O2           0.3180    -1.9260     0.0660 oh         1 1CW      -0.605100
     10 C            1.8880    -0.1720    -0.0410 ca         1 1CW       0.034600
     11 N            2.9040    -1.1160    -0.1310 nv         1 1CW      -0.805200
     12 H2          -1.0280     2.3960     0.0480 ha         1 1CW       0.137000
     13 H3           1.3200     3.1780    -0.0780 ha         1 1CW       0.102000
     14 H4           3.1640     1.5400    -0.1270 ha         1 1CW       0.098000
     15 H5          -0.7070    -1.9770     0.1240 ho         1 1CW       0.509000
     16 H6           2.7120    -1.9800     0.3530 hn         1 1CW       0.363800
     17 H7           3.8120    -0.7630     0.1300 hn         1 1CW       0.363800
@<TRIPOS>BOND
     1     1     2 1   
     2     2     3 1   
     3     2     4 1   
     4     4     5 ar  
     5     4     8 ar  
     6     5     6 ar  
     7     5    12 1   
     8     6     7 ar  
     9     6    13 1   
    10     7    10 ar  
    11     7    14 1   
    12     8     9 1   
    13     8    10 ar  
    14     9    15 1   
    15    10    11 1   
    16    11    16 1   
    17    11    17 1   
@<TRIPOS>SUBSTRUCTURE
     1 1CW         1 TEMP              0 ****  ****    0 ROOT
