@<TRIPOS>MOLECULE
1CX
   36    37     1     0     0
SMALL
No Charge or Current Charge


@<TRIPOS>ATOM
      1 N1          39.7500   -14.1580     6.5460 ne         1 1CX      -0.532100
      2 C4          41.6560   -15.6660     6.6850 ca         1 1CX      -0.075000
      3 C5          42.2950   -16.7870     7.2480 ca         1 1CX      -0.081000
      4 C6          41.6540   -17.5300     8.2520 ca         1 1CX       0.211000
      5 C7          39.1100   -12.9730     4.5450 cf         1 1CX      -0.233800
      6 C8          37.9750   -12.7040     3.8230 ce         1 1CX      -0.103000
      7 C10         36.9280   -14.8440     4.3680 c2         1 1CX       0.126300
      8 C13         40.3190   -12.0780     4.5320 c          1 1CX       0.628300
      9 C15         42.5420    -8.1020     4.8580 c3         1 1CX       0.161600
     10 C1          40.3770   -17.1590     8.6990 ca         1 1CX      -0.102000
     11 C2          39.7400   -16.0400     8.1390 ca         1 1CX       0.139000
     12 C3          40.3730   -15.2850     7.1230 ca         1 1CX       0.123400
     13 I1          42.6390   -19.2550     9.1140 i          1 1CX      -0.298000
     14 C9          36.8360   -13.6210     3.8160 ce         1 1CX      -0.230000
     15 C11         38.2180   -15.3420     5.0010 c6         1 1CX       0.114200
     16 C12         39.1940   -14.1930     5.3630 cf         1 1CX       0.499600
     17 F2          38.8480   -16.2940     4.1660 f          1 1CX      -0.237000
     18 F3          38.5070   -15.6960     8.5800 f          1 1CX      -0.178000
     19 O1          41.4060   -12.4170     4.9810 o          1 1CX      -0.533100
     20 N2          40.1490   -10.8280     3.9510 ns         1 1CX      -0.393400
     21 O2          41.2770    -9.9360     3.8770 os         1 1CX      -0.209100
     22 C14         41.3560    -9.0820     5.0350 c3         1 1CX       0.124600
     23 O3          43.8020    -8.7970     4.8650 oh         1 1CX      -0.647000
     24 H4          42.1590   -15.0910     5.9110 ha         1 1CX       0.134000
     25 H5          43.2850   -17.0790     6.9080 ha         1 1CX       0.135000
     26 H8          37.8810   -11.8060     3.2070 ha         1 1CX       0.197000
     27 H15         42.4130    -7.5510     3.9170 h1         1 1CX       0.030700
     28 H15A        42.5140    -7.3700     5.6750 h1         1 1CX       0.030700
     29 H1          39.8850   -17.7350     9.4760 ha         1 1CX       0.147000
     30 H9          35.9100   -13.2920     3.3390 ha         1 1CX       0.213000
     31 H11         37.9450   -15.8690     5.9240 h1         1 1CX       0.106700
     32 HN2         39.2710   -10.4970     3.5660 hn         1 1CX       0.338500
     33 H14         41.4990    -9.6710     5.9490 h1         1 1CX       0.048700
     34 H14A        40.4310    -8.5000     5.1440 h1         1 1CX       0.048700
     35 HO3         44.5020    -8.1220     4.7200 ho         1 1CX       0.442000
     36 F1          35.9120   -15.7160     4.3820 f          1 1CX      -0.149500
@<TRIPOS>BOND
     1     1    12 1   
     2     1    16 2   
     3     2     3 ar  
     4     2    12 ar  
     5     2    24 1   
     6     3     4 ar  
     7     3    25 1   
     8     4    10 ar  
     9     4    13 1   
    10     5     6 2   
    11     5     8 1   
    12     5    16 1   
    13     6    14 1   
    14     6    26 1   
    15     7    14 2   
    16     7    15 1   
    17     7    36 1   
    18     8    19 2   
    19     8    20 1   
    20     9    22 1   
    21     9    23 1   
    22     9    27 1   
    23     9    28 1   
    24    10    11 ar  
    25    10    29 1   
    26    11    12 ar  
    27    11    18 1   
    28    14    30 1   
    29    15    16 1   
    30    15    17 1   
    31    15    31 1   
    32    20    21 1   
    33    20    32 1   
    34    21    22 1   
    35    22    33 1   
    36    22    34 1   
    37    23    35 1   
@<TRIPOS>SUBSTRUCTURE
     1 1CX         1 TEMP              0 ****  ****    0 ROOT
