@<TRIPOS>MOLECULE
1CX
   36    37     1     0     0
SMALL
abcg2


@<TRIPOS>ATOM
      1 N1          40.3720   -14.3500     6.1540 ne         1 1CX      -0.532100
      2 C4          41.8290   -16.2760     6.1630 ca         1 1CX      -0.075000
      3 C5          42.2580   -17.4770     6.7060 ca         1 1CX      -0.081000
      4 C6          41.5990   -18.0000     7.8140 ca         1 1CX       0.211000
      5 C7          39.0170   -12.6870     5.1770 cf         1 1CX      -0.233800
      6 C8          37.9000   -12.3580     4.4980 ce         1 1CX      -0.103000
      7 C10         36.9460   -14.5470     4.6810 c2         1 1CX       0.126300
      8 C13         40.0730   -11.6590     5.4720 c          1 1CX       0.628300
      9 C15         42.4490    -8.0460     4.4240 c3         1 1CX       0.161600
     10 C1          40.5170   -17.3360     8.3780 ca         1 1CX      -0.102000
     11 C2          40.1020   -16.1520     7.7980 ca         1 1CX       0.139000
     12 C3          40.7220   -15.5940     6.6790 ca         1 1CX       0.123400
     13 I1          42.2550   -19.8160     8.6670 i          1 1CX      -0.298000
     14 C9          36.8270   -13.2990     4.2430 ce         1 1CX      -0.230000
     15 C11         38.0990   -15.0600     5.4730 c6         1 1CX       0.114200
     16 C12         39.2330   -14.0460     5.6610 cf         1 1CX       0.499600
     17 F2          38.6120   -16.1990     4.8280 f          1 1CX      -0.237000
     18 F3          39.0540   -15.4990     8.3570 f          1 1CX      -0.178000
     19 O1          40.2910   -11.2430     6.6030 o          1 1CX      -0.533100
     20 N2          40.7110   -11.2280     4.3660 ns         1 1CX      -0.393400
     21 O2          41.7490   -10.3280     4.4620 os         1 1CX      -0.209100
     22 C14         41.2800    -8.9750     4.2440 c3         1 1CX       0.124600
     23 O3          42.8010    -7.9970     5.8060 oh         1 1CX      -0.647000
     24 H4          42.3430   -15.8500     5.3120 ha         1 1CX       0.134000
     25 H5          43.1050   -17.9900     6.2730 ha         1 1CX       0.135000
     26 H8          37.7790   -11.3490     4.1240 ha         1 1CX       0.197000
     27 H15         43.2920    -8.3940     3.8180 h1         1 1CX       0.030700
     28 H15A        42.1500    -7.0570     4.0590 h1         1 1CX       0.030700
     29 H1          39.9940   -17.7110     9.2460 ha         1 1CX       0.147000
     30 H9          35.9400   -12.9780     3.7140 ha         1 1CX       0.213000
     31 H11         37.7340   -15.3890     6.4500 h1         1 1CX       0.106700
     32 HN2         40.5820   -11.6450     3.4540 hn         1 1CX       0.338500
     33 H14         40.4880    -8.7510     4.9620 h1         1 1CX       0.048700
     34 H14A        40.8880    -8.8930     3.2270 h1         1 1CX       0.048700
     35 HO3         43.5850    -7.4420     5.8990 ho         1 1CX       0.442000
     36 F1          35.9820   -15.4630     4.4900 f          1 1CX      -0.149500
@<TRIPOS>BOND
     1     1    12 1   
     2     1    16 2   
     3     2     3 ar  
     4     2    12 ar  
     5     2    24 1   
     6     3     4 ar  
     7     3    25 1   
     8     4    10 ar  
     9     4    13 1   
    10     5     6 2   
    11     5     8 1   
    12     5    16 1   
    13     6    14 1   
    14     6    26 1   
    15     7    14 2   
    16     7    15 1   
    17     7    36 1   
    18     8    19 2   
    19     8    20 1   
    20     9    22 1   
    21     9    23 1   
    22     9    27 1   
    23     9    28 1   
    24    10    11 ar  
    25    10    29 1   
    26    11    12 ar  
    27    11    18 1   
    28    14    30 1   
    29    15    16 1   
    30    15    17 1   
    31    15    31 1   
    32    20    21 1   
    33    20    32 1   
    34    21    22 1   
    35    22    33 1   
    36    22    34 1   
    37    23    35 1   
@<TRIPOS>SUBSTRUCTURE
     1 1CX         1 TEMP              0 ****  ****    0 ROOT
