@<TRIPOS>MOLECULE
1CY
   31    32     1     0     0
SMALL
No Charge or Current Charge


@<TRIPOS>ATOM
      1 N1          -3.1450     0.8670     0.2070 n2         1 1CY      -0.776900
      2 C2          -3.4480    -0.2700     0.6480 ce         1 1CY       0.876200
      3 N3          -2.8690    -1.4080     0.2600 ne         1 1CY      -0.902000
      4 C4          -1.6540    -1.2570    -0.0200 c2         1 1CY       0.905100
      5 N5          -1.0040    -0.0890    -0.2060 nh         1 1CY      -0.859400
      6 C6          -1.7310     1.1610     0.0730 c6         1 1CY       0.489400
      7 N7          -4.6900    -0.6520     0.6660 nv         1 1CY      -1.005200
      8 N8          -1.1490    -2.2830    -0.6520 nv         1 1CY      -1.042200
      9 C9          -1.2510     1.8270     1.3940 c3         1 1CY      -0.102600
     10 C10         -1.5790     2.1720    -1.0960 c3         1 1CY      -0.102600
     11 C11          0.4070    -0.0540    -0.2480 ca         1 1CY       0.270000
     12 C12          1.1630    -0.3680     0.8980 ca         1 1CY      -0.104500
     13 C13          2.5700    -0.3410     0.8550 ca         1 1CY      -0.100500
     14 C14          3.2270    -0.0070    -0.3390 ca         1 1CY       0.119000
     15 C15          2.4830     0.2950    -1.4910 ca         1 1CY      -0.100500
     16 C16          1.0760     0.2670    -1.4450 ca         1 1CY      -0.104500
     17 Cl17         4.9840     0.0270    -0.3950 cl         1 1CY      -0.194000
     18 HN7         -5.2440    -0.0110     0.1220 hn         1 1CY       0.471500
     19 HN7A        -4.6940    -1.5980     0.3250 hn         1 1CY       0.471500
     20 HN8         -1.9280    -2.8810    -0.8720 hn         1 1CY       0.494500
     21 HN8A        -0.6560    -1.9490    -1.4610 hn         1 1CY       0.494500
     22 H9          -0.2060     2.1530     1.3250 hc         1 1CY       0.045367
     23 H9A         -1.8500     2.7130     1.6320 hc         1 1CY       0.045367
     24 H9B         -1.3290     1.1360     2.2420 hc         1 1CY       0.045367
     25 H10         -1.8820     1.7250    -2.0500 hc         1 1CY       0.045367
     26 H10A        -2.2010     3.0610    -0.9350 hc         1 1CY       0.045367
     27 H10B        -0.5450     2.5180    -1.1990 hc         1 1CY       0.045367
     28 H12          0.6570    -0.6300     1.8230 ha         1 1CY       0.131500
     29 H13          3.1470    -0.5790     1.7450 ha         1 1CY       0.134500
     30 H15          2.9930     0.5480    -2.4170 ha         1 1CY       0.134500
     31 H16          0.5040     0.4950    -2.3400 ha         1 1CY       0.131500
@<TRIPOS>BOND
     1     1     2 2   
     2     1     6 1   
     3     2     3 1   
     4     2     7 1   
     5     3     4 2   
     6     4     5 1   
     7     4     8 1   
     8     5     6 1   
     9     5    11 1   
    10     6     9 1   
    11     6    10 1   
    12     7    18 1   
    13     7    19 1   
    14     8    20 1   
    15     8    21 1   
    16     9    22 1   
    17     9    23 1   
    18     9    24 1   
    19    10    25 1   
    20    10    26 1   
    21    10    27 1   
    22    11    12 ar  
    23    11    16 ar  
    24    12    13 ar  
    25    12    28 1   
    26    13    14 ar  
    27    13    29 1   
    28    14    15 ar  
    29    14    17 1   
    30    15    16 ar  
    31    15    30 1   
    32    16    31 1   
@<TRIPOS>SUBSTRUCTURE
     1 1CY         1 TEMP              0 ****  ****    0 ROOT
