@<TRIPOS>MOLECULE
1CY
   31    32     1     0     0
SMALL
bcc


@<TRIPOS>ATOM
      1 N1          -3.0250     0.8390     0.7290 n2         1 1CY      -0.776900
      2 C2          -3.5440    -0.2840     0.3750 ce         1 1CY       0.876200
      3 N3          -2.9570    -1.2750    -0.3660 ne         1 1CY      -0.902000
      4 C4          -1.6600    -1.1710    -0.5000 c2         1 1CY       0.905100
      5 N5          -0.9670    -0.0840    -0.0920 nh         1 1CY      -0.721000
      6 C6          -1.7430     1.1650     0.1730 c6         1 1CY       0.489400
      7 N7          -4.8000    -0.6070     0.8090 nv         1 1CY      -0.894800
      8 N8          -0.9790    -2.2170    -1.0030 nv         1 1CY      -0.931800
      9 C9          -0.9860     2.0250     1.1780 c3         1 1CY      -0.102600
     10 C10         -1.9260     1.9380    -1.1380 c3         1 1CY      -0.102600
     11 C11          0.4500    -0.0720    -0.1290 ca         1 1CY       0.131600
     12 C12          1.1670    -0.4910     0.9870 ca         1 1CY      -0.122500
     13 C13          2.5520    -0.4770     0.9810 ca         1 1CY      -0.118500
     14 C14          3.2180    -0.0430    -0.1550 ca         1 1CY       0.027400
     15 C15          2.5220     0.3670    -1.2810 ca         1 1CY      -0.118500
     16 C16          1.1350     0.3480    -1.2630 ca         1 1CY      -0.122500
     17 CL17         4.9490    -0.0190    -0.1700 cl         1 1CY      -0.102400
     18 HN7         -5.3950     0.1630     1.0670 hn         1 1CY       0.416300
     19 HN7A        -5.2650    -1.3430     0.3040 hn         1 1CY       0.416300
     20 HN8         -1.5310    -2.9790    -1.3600 hn         1 1CY       0.439300
     21 HN8A        -0.0700    -2.0990    -1.4170 hn         1 1CY       0.439300
     22 H9          -0.0250     2.3700     0.7960 hc         1 1CY       0.045367
     23 H9A         -1.5870     2.9060     1.4010 hc         1 1CY       0.045367
     24 H9B         -0.8170     1.4860     2.1100 hc         1 1CY       0.045367
     25 H10         -2.4250     1.3230    -1.8890 hc         1 1CY       0.045367
     26 H10A        -2.5440     2.8190    -0.9590 hc         1 1CY       0.045367
     27 H10B        -0.9740     2.2810    -1.5470 hc         1 1CY       0.045367
     28 H12          0.6390    -0.8310     1.8680 ha         1 1CY       0.149500
     29 H13          3.1030    -0.8030     1.8530 ha         1 1CY       0.152500
     30 H15          3.0490     0.6970    -2.1660 ha         1 1CY       0.152500
     31 H16          0.5920     0.6570    -2.1460 ha         1 1CY       0.149500
@<TRIPOS>BOND
     1     1     2 2   
     2     1     6 1   
     3     2     3 1   
     4     2     7 1   
     5     3     4 2   
     6     4     5 1   
     7     4     8 1   
     8     5     6 1   
     9     5    11 1   
    10     6     9 1   
    11     6    10 1   
    12     7    18 1   
    13     7    19 1   
    14     8    20 1   
    15     8    21 1   
    16     9    22 1   
    17     9    23 1   
    18     9    24 1   
    19    10    25 1   
    20    10    26 1   
    21    10    27 1   
    22    11    12 ar  
    23    11    16 ar  
    24    12    13 ar  
    25    12    28 1   
    26    13    14 ar  
    27    13    29 1   
    28    14    15 ar  
    29    14    17 1   
    30    15    16 ar  
    31    15    30 1   
    32    16    31 1   
@<TRIPOS>SUBSTRUCTURE
     1 1CY         1 TEMP              0 ****  ****    0 ROOT
