@<TRIPOS>MOLECULE
1D1
   47    50     1     0     0
SMALL
abcg2


@<TRIPOS>ATOM
      1 O23         13.6570     4.3410    10.6230 o          1 1D1      -0.548000
      2 C13         12.5670     4.8860    10.4850 c          1 1D1       0.562000
      3 N12         11.4150     4.1920    10.2890 n          1 1D1      -0.194400
      4 C24         11.4530     2.7340    10.2170 c3         1 1D1       0.080300
      5 C9          10.1840     4.8480    10.1380 ca         1 1D1      -0.200000
      6 C8           9.0240     4.2070     9.7620 ca         1 1D1       0.100900
      7 N7           7.8310     4.8230     9.6990 nb         1 1D1      -0.180000
      8 C14         12.5020     6.4070    10.4860 c6         1 1D1       0.163500
      9 C21         13.0940     6.9470     9.1660 c3         1 1D1      -0.093400
     10 C22         12.2960     6.5720     7.9210 c3         1 1D1      -0.095100
     11 N15         11.1750     6.9380    10.7900 nh         1 1D1      -0.777300
     12 C16         11.0120     8.3330    11.2290 c5         1 1D1       0.238500
     13 C20         10.7520     9.3730    10.1000 c5         1 1D1      -0.092900
     14 C19         11.5700    10.6230    10.4900 c5         1 1D1      -0.081400
     15 C18         11.9270    10.4110    11.9690 c5         1 1D1      -0.081400
     16 C17         12.1770     8.9030    12.0480 c5         1 1D1      -0.092900
     17 C10         10.0780     6.2320    10.4390 ca         1 1D1       0.379900
     18 N11          8.8880     6.8310    10.4070 nb         1 1D1      -0.279000
     19 C6           7.8150     6.1100    10.0460 ca         1 1D1       0.242500
     20 C2           6.5450     6.8170    10.0310 cc         1 1D1      -0.250500
     21 C3           5.2560     6.4020     9.7300 cd         1 1D1      -0.111000
     22 C4           4.4020     7.5210     9.8830 cd         1 1D1      -0.197000
     23 C5           5.1910     8.5890    10.2710 cc         1 1D1      -0.178000
     24 N1           6.4760     8.1500    10.3560 na         1 1D1      -0.090000
     25 H1          12.4490     2.4080    10.4950 h1         1 1D1       0.054700
     26 H2          10.7200     2.3130    10.9050 h1         1 1D1       0.054700
     27 H3          11.2300     2.3960     9.2040 h1         1 1D1       0.054700
     28 H4           9.0340     3.1550     9.5090 h4         1 1D1       0.027100
     29 H5          13.1710     6.6970    11.2940 h1         1 1D1       0.089700
     30 H6          14.1140     6.5670     9.0910 hc         1 1D1       0.058700
     31 H7          13.1710     8.0320     9.2510 hc         1 1D1       0.058700
     32 H8          12.7570     7.0050     7.0320 hc         1 1D1       0.040367
     33 H9          12.2570     5.4890     7.7820 hc         1 1D1       0.040367
     34 H10         11.2710     6.9410     7.9740 hc         1 1D1       0.040367
     35 H11         10.1350     8.3220    11.8750 h1         1 1D1       0.072700
     36 H12          9.6860     9.5900    10.0450 hc         1 1D1       0.052950
     37 H13         11.0460     8.9810     9.1280 hc         1 1D1       0.052950
     38 H14         12.4900    10.6680     9.9010 hc         1 1D1       0.047200
     39 H15         11.0250    11.5510    10.3160 hc         1 1D1       0.047200
     40 H16         12.7890    10.9970    12.2890 hc         1 1D1       0.047200
     41 H17         11.0810    10.6840    12.6070 hc         1 1D1       0.047200
     42 H18         12.1990     8.5080    13.0640 hc         1 1D1       0.052950
     43 H19         13.1400     8.6900    11.5810 hc         1 1D1       0.052950
     44 H20          4.9730     5.4050     9.4360 ha         1 1D1       0.144000
     45 H21          3.3360     7.5470     9.7270 ha         1 1D1       0.134000
     46 H22          4.9350     9.6130    10.4900 h4         1 1D1       0.145000
     47 H23          7.2810     8.6980    10.6180 hn         1 1D1       0.359000
@<TRIPOS>BOND
     1     1     2 2   
     2     2     3 1   
     3     2     8 1   
     4     3     4 1   
     5     3     5 1   
     6     4    25 1   
     7     4    26 1   
     8     4    27 1   
     9     5     6 ar  
    10     5    17 ar  
    11     6     7 ar  
    12     6    28 1   
    13     7    19 ar  
    14     8     9 1   
    15     8    11 1   
    16     8    29 1   
    17     9    10 1   
    18     9    30 1   
    19     9    31 1   
    20    10    32 1   
    21    10    33 1   
    22    10    34 1   
    23    11    12 1   
    24    11    17 1   
    25    12    13 1   
    26    12    16 1   
    27    12    35 1   
    28    13    14 1   
    29    13    36 1   
    30    13    37 1   
    31    14    15 1   
    32    14    38 1   
    33    14    39 1   
    34    15    16 1   
    35    15    40 1   
    36    15    41 1   
    37    16    42 1   
    38    16    43 1   
    39    17    18 ar  
    40    18    19 ar  
    41    19    20 1   
    42    20    21 2   
    43    20    24 1   
    44    21    22 1   
    45    21    44 1   
    46    22    23 2   
    47    22    45 1   
    48    23    24 1   
    49    23    46 1   
    50    24    47 1   
@<TRIPOS>SUBSTRUCTURE
     1 1D1         1 TEMP              0 ****  ****    0 ROOT
