@<TRIPOS>MOLECULE
1D1
   47    50     1     0     0
SMALL
No Charge or Current Charge


@<TRIPOS>ATOM
      1 O23         13.7240     4.2260    10.5340 o          1 1D1      -0.548000
      2 C13         12.6490     4.8130    10.4170 c          1 1D1       0.562000
      3 N12         11.4160     4.1250    10.3430 n          1 1D1      -0.194400
      4 C24         11.4110     2.6440    10.4420 c3         1 1D1       0.080300
      5 C9          10.1560     4.8350    10.3040 ca         1 1D1      -0.200000
      6 C8           8.9570     4.1960     9.9210 ca         1 1D1       0.100900
      7 N7           7.7950     4.8630     9.8170 nb         1 1D1      -0.180000
      8 C14         12.5880     6.3730    10.3580 c6         1 1D1       0.163500
      9 C21         13.0850     6.8400     8.9500 c3         1 1D1      -0.093400
     10 C22         12.1530     6.5080     7.7610 c3         1 1D1      -0.095100
     11 N15         11.2610     7.0220    10.7050 nh         1 1D1      -0.777300
     12 C16         11.1250     8.3880    11.3400 c5         1 1D1       0.238500
     13 C20         10.8580     9.4410    10.2270 c5         1 1D1      -0.092900
     14 C19         11.2520    10.7900    10.9140 c5         1 1D1      -0.081400
     15 C18         12.0700    10.3820    12.1830 c5         1 1D1      -0.081400
     16 C17         12.4770     8.9170    11.8890 c5         1 1D1      -0.092900
     17 C10         10.0980     6.2420    10.4540 ca         1 1D1       0.379900
     18 N11          8.9260     6.9010    10.3630 nb         1 1D1      -0.279000
     19 C6           7.8220     6.1900    10.0610 ca         1 1D1       0.242500
     20 C2           6.5630     6.9390     9.9670 cc         1 1D1      -0.250500
     21 C3           5.3480     6.3880     9.6590 cd         1 1D1      -0.111000
     22 C4           4.3920     7.4250     9.6620 cd         1 1D1      -0.197000
     23 C5           5.0070     8.6130     9.9680 cc         1 1D1      -0.178000
     24 N1           6.3580     8.3080    10.1560 na         1 1D1      -0.090000
     25 H1          12.3320     2.2690    10.9040 h1         1 1D1       0.054700
     26 H2          10.5680     2.3140    11.0620 h1         1 1D1       0.054700
     27 H3          11.3120     2.2110     9.4390 h1         1 1D1       0.054700
     28 H4           8.9120     3.1310     9.7020 h4         1 1D1       0.027100
     29 H5          13.3520     6.6620    11.0920 h1         1 1D1       0.089700
     30 H6          14.0650     6.3890     8.7480 hc         1 1D1       0.058700
     31 H7          13.2660     7.9200     8.9580 hc         1 1D1       0.058700
     32 H8          12.6040     6.8440     6.8200 hc         1 1D1       0.040367
     33 H9          11.9760     5.4290     7.6880 hc         1 1D1       0.040367
     34 H10         11.1850     7.0110     7.8690 hc         1 1D1       0.040367
     35 H11         10.3510     8.4070    12.1220 h1         1 1D1       0.072700
     36 H12          9.8150     9.4440     9.8920 hc         1 1D1       0.052950
     37 H13         11.4730     9.2700     9.3380 hc         1 1D1       0.052950
     38 H14         11.8460    11.4130    10.2350 hc         1 1D1       0.047200
     39 H15         10.3690    11.3780    11.1900 hc         1 1D1       0.047200
     40 H16         12.9380    11.0310    12.3450 hc         1 1D1       0.047200
     41 H17         11.4500    10.4440    13.0860 hc         1 1D1       0.047200
     42 H18         12.8060     8.3840    12.7880 hc         1 1D1       0.052950
     43 H19         13.2920     8.8900    11.1560 hc         1 1D1       0.052950
     44 H20          5.1460     5.3400     9.4480 ha         1 1D1       0.144000
     45 H21          3.3330     7.3040     9.4530 ha         1 1D1       0.134000
     46 H22          4.6100     9.6180    10.0640 h4         1 1D1       0.145000
     47 H23          7.0840     8.9790    10.3950 hn         1 1D1       0.359000
@<TRIPOS>BOND
     1     1     2 2   
     2     2     3 1   
     3     2     8 1   
     4     3     4 1   
     5     3     5 1   
     6     4    25 1   
     7     4    26 1   
     8     4    27 1   
     9     5     6 ar  
    10     5    17 ar  
    11     6     7 ar  
    12     6    28 1   
    13     7    19 ar  
    14     8     9 1   
    15     8    11 1   
    16     8    29 1   
    17     9    10 1   
    18     9    30 1   
    19     9    31 1   
    20    10    32 1   
    21    10    33 1   
    22    10    34 1   
    23    11    12 1   
    24    11    17 1   
    25    12    13 1   
    26    12    16 1   
    27    12    35 1   
    28    13    14 1   
    29    13    36 1   
    30    13    37 1   
    31    14    15 1   
    32    14    38 1   
    33    14    39 1   
    34    15    16 1   
    35    15    40 1   
    36    15    41 1   
    37    16    42 1   
    38    16    43 1   
    39    17    18 ar  
    40    18    19 ar  
    41    19    20 1   
    42    20    21 2   
    43    20    24 1   
    44    21    22 1   
    45    21    44 1   
    46    22    23 2   
    47    22    45 1   
    48    23    24 1   
    49    23    46 1   
    50    24    47 1   
@<TRIPOS>SUBSTRUCTURE
     1 1D1         1 TEMP              0 ****  ****    0 ROOT
