@<TRIPOS>MOLECULE
1D2
   63    64     1     0     0
SMALL
No Charge or Current Charge


@<TRIPOS>ATOM
      1 O2          -2.7160     1.0220    -2.0460 oh         1 1D2      -0.698000
      2 C10         -2.4920     0.0990    -0.9490 c6         1 1D2       0.157300
      3 C9          -1.0260     0.2030    -0.4230 c6         1 1D2       0.356300
      4 O3          -0.8140    -0.7710     0.6130 os         1 1D2      -0.485000
      5 C15         -1.6100    -0.5310     1.7850 c6         1 1D2       0.185300
      6 C16         -1.1770    -1.5680     2.8470 c3         1 1D2      -0.087100
      7 C14         -3.1120    -0.6370     1.4240 c6         1 1D2      -0.148400
      8 C11         -3.4740     0.3350     0.2580 c6         1 1D2       0.193500
      9 N           -4.9330     0.2710    -0.1150 n3         1 1D2      -0.710600
     10 C12         -5.3940    -1.0210    -0.6830 c3         1 1D2       0.160600
     11 C13         -5.8450     0.7850     0.9330 c3         1 1D2       0.160600
     12 O1          -0.0920    -0.0290    -1.4970 os         1 1D2      -0.469000
     13 C8           1.3230     0.0120    -1.2040 c3         1 1D2       0.177300
     14 C7           2.0190    -0.7230    -2.3860 c3         1 1D2      -0.087400
     15 C6           2.1350    -2.2600    -2.1940 c3         1 1D2      -0.072900
     16 C5           3.4040    -2.7890    -1.4550 c3         1 1D2      -0.072900
     17 C4           3.6200    -2.3080     0.0060 c3         1 1D2      -0.072900
     18 C3           4.3990    -0.9710     0.1300 c3         1 1D2      -0.074400
     19 C2           3.9600    -0.0910     1.3220 c3         1 1D2      -0.079400
     20 C1           4.5290     1.3520     1.2630 c3         1 1D2      -0.074400
     21 C20          3.6020     2.4350     1.8730 c3         1 1D2      -0.072900
     22 C19          2.5630     3.0880     0.9110 c3         1 1D2      -0.072900
     23 C18          1.4600     2.1630     0.3280 c3         1 1D2      -0.072900
     24 C17          1.8120     1.4820    -1.0280 c3         1 1D2      -0.087400
     25 H22O        -1.9310     0.9240    -2.6340 ho         1 1D2       0.512000
     26 H10         -2.6280    -0.9310    -1.3080 h1         1 1D2       0.051700
     27 H9          -0.8790     1.2110    -0.0150 h2         1 1D2       0.028700
     28 H11         -3.2650     1.3530     0.6210 h1         1 1D2       0.061700
     29 H15         -1.3870     0.4760     2.1680 h1         1 1D2       0.030700
     30 H161        -0.1090    -1.4710     3.0770 hc         1 1D2       0.045033
     31 H162        -1.7320    -1.4270     3.7820 hc         1 1D2       0.045033
     32 H163        -1.3560    -2.5930     2.5020 hc         1 1D2       0.045033
     33 H141        -3.3410    -1.6740     1.1450 hc         1 1D2       0.056200
     34 H142        -3.7100    -0.4090     2.3160 hc         1 1D2       0.056200
     35 H121        -5.3590    -1.8210     0.0680 h1         1 1D2       0.029033
     36 H122        -6.4310    -0.9350    -1.0340 h1         1 1D2       0.029033
     37 H131        -5.5130     1.7690     1.2900 h1         1 1D2       0.029033
     38 H132        -6.8620     0.8970     0.5370 h1         1 1D2       0.029033
     39 H133        -5.8890     0.1020     1.7920 h1         1 1D2       0.029033
     40 H8           1.5380    -0.5390    -0.2840 h1         1 1D2       0.057700
     41 H71C         1.4480    -0.5260    -3.3010 hc         1 1D2       0.048700
     42 H72C         3.0140    -0.3090    -2.5820 hc         1 1D2       0.048700
     43 H171         2.9000     1.4930    -1.1440 hc         1 1D2       0.048700
     44 H172         1.4280     2.0940    -1.8530 hc         1 1D2       0.048700
     45 H61C         1.2370    -2.6310    -1.6840 hc         1 1D2       0.042200
     46 H62C         2.1240    -2.7230    -3.1890 hc         1 1D2       0.042200
     47 H51C         3.3350    -3.8840    -1.4380 hc         1 1D2       0.035950
     48 H52C         4.2960    -2.5570    -2.0500 hc         1 1D2       0.035950
     49 H41C         2.6490    -2.2480     0.5110 hc         1 1D2       0.037950
     50 H42C         4.1850    -3.0760     0.5490 hc         1 1D2       0.037950
     51 H31C         5.4720    -1.1850     0.2120 hc         1 1D2       0.036200
     52 H32C         4.2880    -0.3940    -0.7910 hc         1 1D2       0.036200
     53 H21C         2.8690    -0.0530     1.3610 hc         1 1D2       0.039200
     54 H22C         4.2710    -0.5660     2.2610 hc         1 1D2       0.039200
     55 H11C         5.4840     1.3580     1.8040 hc         1 1D2       0.036200
     56 H12C         4.7730     1.6350     0.2330 hc         1 1D2       0.036200
     57 H201         3.0850     2.0270     2.7500 hc         1 1D2       0.037950
     58 H202         4.2410     3.2420     2.2530 hc         1 1D2       0.037950
     59 H191         2.0620     3.8840     1.4760 hc         1 1D2       0.035950
     60 H192         3.0890     3.5950     0.0920 hc         1 1D2       0.035950
     61 H181         1.1830     1.4170     1.0820 hc         1 1D2       0.042200
     62 H182         0.5640     2.7750     0.1700 hc         1 1D2       0.042200
     63 H123        -4.7810    -1.3220    -1.5410 h1         1 1D2       0.029033
@<TRIPOS>BOND
     1     1     2 1   
     2     1    25 1   
     3     2     3 1   
     4     2     8 1   
     5     2    26 1   
     6     3     4 1   
     7     3    12 1   
     8     3    27 1   
     9     4     5 1   
    10     5     6 1   
    11     5     7 1   
    12     5    29 1   
    13     6    30 1   
    14     6    31 1   
    15     6    32 1   
    16     7     8 1   
    17     7    33 1   
    18     7    34 1   
    19     8     9 1   
    20     8    28 1   
    21     9    10 1   
    22     9    11 1   
    23    10    35 1   
    24    10    36 1   
    25    10    63 1   
    26    11    37 1   
    27    11    38 1   
    28    11    39 1   
    29    12    13 1   
    30    13    14 1   
    31    13    24 1   
    32    13    40 1   
    33    14    15 1   
    34    14    41 1   
    35    14    42 1   
    36    15    16 1   
    37    15    45 1   
    38    15    46 1   
    39    16    17 1   
    40    16    47 1   
    41    16    48 1   
    42    17    18 1   
    43    17    49 1   
    44    17    50 1   
    45    18    19 1   
    46    18    51 1   
    47    18    52 1   
    48    19    20 1   
    49    19    53 1   
    50    19    54 1   
    51    20    21 1   
    52    20    55 1   
    53    20    56 1   
    54    21    22 1   
    55    21    57 1   
    56    21    58 1   
    57    22    23 1   
    58    22    59 1   
    59    22    60 1   
    60    23    24 1   
    61    23    61 1   
    62    23    62 1   
    63    24    43 1   
    64    24    44 1   
@<TRIPOS>SUBSTRUCTURE
     1 1D2         1 TEMP              0 ****  ****    0 ROOT
