@<TRIPOS>MOLECULE
1D2
   63    64     1     0     0
SMALL
bcc


@<TRIPOS>ATOM
      1 O2          -2.5670     1.0750    -1.8030 oh         1 1D2      -0.575800
      2 C10         -2.4050     0.0420    -0.8660 c6         1 1D2       0.134100
      3 C9          -0.9850     0.0440    -0.2940 c6         1 1D2       0.309900
      4 O3          -0.8230    -0.9760     0.6510 os         1 1D2      -0.438600
      5 C15         -1.6420    -0.7810     1.7940 c6         1 1D2       0.162100
      6 C16         -1.3130    -1.8680     2.7940 c3         1 1D2      -0.087100
      7 C14         -3.1080    -0.7850     1.3810 c6         1 1D2      -0.148400
      8 C11         -3.3830     0.2560     0.2860 c6         1 1D2       0.193500
      9 N           -4.7580     0.3330    -0.1760 n3         1 1D2      -0.710600
     10 C12         -5.3190    -0.9110    -0.6560 c3         1 1D2       0.160600
     11 C13         -5.6360     0.9790     0.7720 c3         1 1D2       0.160600
     12 O1          -0.1140    -0.1690    -1.3420 os         1 1D2      -0.422600
     13 C8           1.2890    -0.0080    -1.1120 c3         1 1D2       0.154100
     14 C7           1.9550    -0.7240    -2.2910 c3         1 1D2      -0.087400
     15 C6           2.0860    -2.2380    -2.0960 c3         1 1D2      -0.072900
     16 C5           3.3570    -2.7360    -1.3960 c3         1 1D2      -0.072900
     17 C4           3.6200    -2.2140     0.0220 c3         1 1D2      -0.072900
     18 C3           4.3530    -0.8660     0.0670 c3         1 1D2      -0.074400
     19 C2           3.9620     0.0220     1.2420 c3         1 1D2      -0.079400
     20 C1           4.5240     1.4460     1.1490 c3         1 1D2      -0.074400
     21 C20          3.6200     2.5220     1.7590 c3         1 1D2      -0.072900
     22 C19          2.5300     3.1030     0.8500 c3         1 1D2      -0.072900
     23 C18          1.4290     2.1450     0.3690 c3         1 1D2      -0.072900
     24 C17          1.7370     1.4470    -0.9700 c3         1 1D2      -0.087400
     25 H22O        -1.8820     0.9710    -2.4730 ho         1 1D2       0.413000
     26 H10         -2.5760    -0.9460    -1.3240 h1         1 1D2       0.051700
     27 H9          -0.8120     1.0220     0.1850 h2         1 1D2       0.028700
     28 H11         -3.1500     1.2440     0.7060 h1         1 1D2       0.061700
     29 H15         -1.4050     0.1980     2.2400 h1         1 1D2       0.030700
     30 H161        -0.2570    -1.8500     3.0660 hc         1 1D2       0.045033
     31 H162        -1.8960    -1.7260     3.7040 hc         1 1D2       0.045033
     32 H163        -1.5500    -2.8560     2.3940 hc         1 1D2       0.045033
     33 H141        -3.3720    -1.7880     1.0290 hc         1 1D2       0.056200
     34 H142        -3.7290    -0.5790     2.2570 hc         1 1D2       0.056200
     35 H121        -5.5080    -1.6550     0.1320 h1         1 1D2       0.029033
     36 H122        -6.2730    -0.7110    -1.1460 h1         1 1D2       0.029033
     37 H131        -5.2240     1.9460     1.0650 h1         1 1D2       0.029033
     38 H132        -6.6080     1.1600     0.3090 h1         1 1D2       0.029033
     39 H133        -5.8170     0.4010     1.6910 h1         1 1D2       0.029033
     40 H8           1.5530    -0.5300    -0.1870 h1         1 1D2       0.057700
     41 H71C         1.3580    -0.5140    -3.1830 hc         1 1D2       0.048700
     42 H72C         2.9370    -0.2930    -2.4970 hc         1 1D2       0.048700
     43 H171         2.8210     1.4420    -1.1080 hc         1 1D2       0.048700
     44 H172         1.3420     2.0360    -1.8030 hc         1 1D2       0.048700
     45 H61C         1.2070    -2.6040    -1.5550 hc         1 1D2       0.042200
     46 H62C         2.0480    -2.7230    -3.0750 hc         1 1D2       0.042200
     47 H51C         3.2940    -3.8280    -1.3640 hc         1 1D2       0.035950
     48 H52C         4.2230    -2.5120    -2.0280 hc         1 1D2       0.035950
     49 H41C         2.6710    -2.1430     0.5640 hc         1 1D2       0.037950
     50 H42C         4.2070    -2.9540     0.5720 hc         1 1D2       0.037950
     51 H31C         5.4340    -1.0370     0.0690 hc         1 1D2       0.036200
     52 H32C         4.1610    -0.3070    -0.8510 hc         1 1D2       0.036200
     53 H21C         2.8710     0.0610     1.2960 hc         1 1D2       0.039200
     54 H22C         4.2740    -0.4360     2.1860 hc         1 1D2       0.039200
     55 H11C         5.5010     1.4740     1.6380 hc         1 1D2       0.036200
     56 H12C         4.7200     1.7010     0.1020 hc         1 1D2       0.036200
     57 H201         3.1560     2.1300     2.6710 hc         1 1D2       0.037950
     58 H202         4.2410     3.3610     2.0840 hc         1 1D2       0.037950
     59 H191         2.0580     3.9190     1.4050 hc         1 1D2       0.035950
     60 H192         3.0030     3.5740    -0.0180 hc         1 1D2       0.035950
     61 H181         1.2420     1.4020     1.1520 hc         1 1D2       0.042200
     62 H182         0.4990     2.7110     0.2780 hc         1 1D2       0.042200
     63 H123        -4.6660    -1.3740    -1.3960 h1         1 1D2       0.029033
@<TRIPOS>BOND
     1     1     2 1   
     2     1    25 1   
     3     2     3 1   
     4     2     8 1   
     5     2    26 1   
     6     3     4 1   
     7     3    12 1   
     8     3    27 1   
     9     4     5 1   
    10     5     6 1   
    11     5     7 1   
    12     5    29 1   
    13     6    30 1   
    14     6    31 1   
    15     6    32 1   
    16     7     8 1   
    17     7    33 1   
    18     7    34 1   
    19     8     9 1   
    20     8    28 1   
    21     9    10 1   
    22     9    11 1   
    23    10    35 1   
    24    10    36 1   
    25    10    63 1   
    26    11    37 1   
    27    11    38 1   
    28    11    39 1   
    29    12    13 1   
    30    13    14 1   
    31    13    24 1   
    32    13    40 1   
    33    14    15 1   
    34    14    41 1   
    35    14    42 1   
    36    15    16 1   
    37    15    45 1   
    38    15    46 1   
    39    16    17 1   
    40    16    47 1   
    41    16    48 1   
    42    17    18 1   
    43    17    49 1   
    44    17    50 1   
    45    18    19 1   
    46    18    51 1   
    47    18    52 1   
    48    19    20 1   
    49    19    53 1   
    50    19    54 1   
    51    20    21 1   
    52    20    55 1   
    53    20    56 1   
    54    21    22 1   
    55    21    57 1   
    56    21    58 1   
    57    22    23 1   
    58    22    59 1   
    59    22    60 1   
    60    23    24 1   
    61    23    61 1   
    62    23    62 1   
    63    24    43 1   
    64    24    44 1   
@<TRIPOS>SUBSTRUCTURE
     1 1D2         1 TEMP              0 ****  ****    0 ROOT
