@<TRIPOS>MOLECULE
1D4
   66    67     1     0     0
SMALL
bcc


@<TRIPOS>ATOM
      1 O3          -2.0750     1.4610    -1.2590 oh         1 1D4      -0.574800
      2 C12         -2.6400     0.2580    -0.8070 c6         1 1D4       0.134100
      3 C5          -1.7070    -0.4610     0.1710 c6         1 1D4       0.310900
      4 O2          -2.2770    -1.6630     0.6090 os         1 1D4      -0.438600
      5 C6          -3.4660    -1.4560     1.3590 c6         1 1D4       0.163100
      6 C7          -3.9440    -2.8050     1.8540 c3         1 1D4      -0.087100
      7 C8          -4.5050    -0.7410     0.5050 c6         1 1D4      -0.148400
      8 C9          -3.9480     0.5630    -0.0810 c6         1 1D4       0.194500
      9 N           -4.8670     1.3230    -0.9110 n3         1 1D4      -0.710600
     10 C10         -5.4030     0.6180    -2.0540 c3         1 1D4       0.160600
     11 C11         -5.9120     1.9690    -0.1490 c3         1 1D4       0.160600
     12 O1          -0.5320    -0.7430    -0.4950 os         1 1D4      -0.415600
     13 C4           0.6030    -1.1020     0.2960 c3         1 1D4       0.159100
     14 C13          1.6570    -1.6040    -0.6890 c3         1 1D4      -0.092400
     15 C14          2.7890    -2.3800    -0.0190 c3         1 1D4      -0.075400
     16 C15          3.9130    -2.8190    -0.9800 c3         1 1D4      -0.073400
     17 C16          5.2210    -2.0550    -0.7620 c3         1 1D4      -0.072900
     18 C17          5.1020    -0.5670    -1.0900 c3         1 1D4      -0.084900
     19 C18          6.0780     0.3550    -0.3520 c3         1 1D4      -0.072400
     20 C19          5.4760     1.7480    -0.1440 c3         1 1D4      -0.072400
     21 C20          4.3600     1.7250     0.9010 c3         1 1D4      -0.084900
     22 C21          3.3500     2.8700     0.8150 c3         1 1D4      -0.072900
     23 C1           1.9710     2.4670     1.3410 c3         1 1D4      -0.073400
     24 C2           1.2920     1.3890     0.4690 c3         1 1D4      -0.075400
     25 C3           1.0830     0.0540     1.1820 c3         1 1D4      -0.092400
     26 H3          -1.2440     1.2520    -1.6970 ho         1 1D4       0.413000
     27 H12         -2.8310    -0.4340    -1.6410 h1         1 1D4       0.050700
     28 H5          -1.5340     0.2020     1.0390 h2         1 1D4       0.028700
     29 H9          -3.6900     1.2220     0.7600 h1         1 1D4       0.062700
     30 H6          -3.2320    -0.8220     2.2290 h1         1 1D4       0.029700
     31 H71C        -3.1800    -3.3000     2.4550 hc         1 1D4       0.045033
     32 H72C        -4.8290    -2.6810     2.4770 hc         1 1D4       0.045033
     33 H73C        -4.2070    -3.4600     1.0210 hc         1 1D4       0.045033
     34 H81C        -4.8290    -1.4090    -0.3010 hc         1 1D4       0.055700
     35 H82C        -5.3850    -0.5310     1.1180 hc         1 1D4       0.055700
     36 H101        -6.1100    -0.1860    -1.8030 h1         1 1D4       0.029200
     37 H102        -5.9350     1.3250    -2.6940 h1         1 1D4       0.029200
     38 H103        -4.6050     0.1820    -2.6560 h1         1 1D4       0.029200
     39 H111        -5.4760     2.5750     0.6480 h1         1 1D4       0.029200
     40 H112        -6.4790     2.6360    -0.7990 h1         1 1D4       0.029200
     41 H113        -6.6320     1.2780     0.3140 h1         1 1D4       0.029200
     42 H4           0.3350    -1.9400     0.9540 h1         1 1D4       0.048700
     43 H131         1.1650    -2.2610    -1.4110 hc         1 1D4       0.048450
     44 H132         2.0570    -0.7640    -1.2650 hc         1 1D4       0.048450
     45 H31C         0.3880     0.1980     2.0150 hc         1 1D4       0.048450
     46 H32C         2.0160    -0.2660     1.6540 hc         1 1D4       0.048450
     47 H141         3.2220    -1.7830     0.7900 hc         1 1D4       0.042200
     48 H142         2.3580    -3.2580     0.4680 hc         1 1D4       0.042200
     49 H151         4.1070    -3.8860    -0.8500 hc         1 1D4       0.039200
     50 H152         3.5850    -2.7010    -2.0180 hc         1 1D4       0.039200
     51 H161         5.5120    -2.1740     0.2870 hc         1 1D4       0.037700
     52 H162         6.0230    -2.5100    -1.3500 hc         1 1D4       0.037700
     53 H171         5.1940    -0.4150    -2.1690 hc         1 1D4       0.039450
     54 H172         4.0870    -0.2470    -0.8470 hc         1 1D4       0.039450
     55 H181         6.3220    -0.0730     0.6260 hc         1 1D4       0.037950
     56 H182         7.0240     0.4220    -0.8960 hc         1 1D4       0.037950
     57 H191         6.2510     2.4640     0.1440 hc         1 1D4       0.037950
     58 H192         5.0750     2.1040    -1.1000 hc         1 1D4       0.037950
     59 H201         3.8110     0.7850     0.8010 hc         1 1D4       0.039450
     60 H202         4.7960     1.6890     1.9040 hc         1 1D4       0.039450
     61 H211         3.7190     3.7460     1.3550 hc         1 1D4       0.037700
     62 H212         3.2400     3.1860    -0.2280 hc         1 1D4       0.037700
     63 H11C         2.0650     2.1150     2.3740 hc         1 1D4       0.039200
     64 H12C         1.3360     3.3550     1.3900 hc         1 1D4       0.039200
     65 H21C         0.3280     1.7640     0.1210 hc         1 1D4       0.042200
     66 H22C         1.8860     1.2330    -0.4370 hc         1 1D4       0.042200
@<TRIPOS>BOND
     1     1     2 1   
     2     1    26 1   
     3     2     3 1   
     4     2     8 1   
     5     2    27 1   
     6     3     4 1   
     7     3    12 1   
     8     3    28 1   
     9     4     5 1   
    10     5     6 1   
    11     5     7 1   
    12     5    30 1   
    13     6    31 1   
    14     6    32 1   
    15     6    33 1   
    16     7     8 1   
    17     7    34 1   
    18     7    35 1   
    19     8     9 1   
    20     8    29 1   
    21     9    10 1   
    22     9    11 1   
    23    10    36 1   
    24    10    37 1   
    25    10    38 1   
    26    11    39 1   
    27    11    40 1   
    28    11    41 1   
    29    12    13 1   
    30    13    14 1   
    31    13    25 1   
    32    13    42 1   
    33    14    15 1   
    34    14    43 1   
    35    14    44 1   
    36    15    16 1   
    37    15    47 1   
    38    15    48 1   
    39    16    17 1   
    40    16    49 1   
    41    16    50 1   
    42    17    18 1   
    43    17    51 1   
    44    17    52 1   
    45    18    19 1   
    46    18    53 1   
    47    18    54 1   
    48    19    20 1   
    49    19    55 1   
    50    19    56 1   
    51    20    21 1   
    52    20    57 1   
    53    20    58 1   
    54    21    22 1   
    55    21    59 1   
    56    21    60 1   
    57    22    23 1   
    58    22    61 1   
    59    22    62 1   
    60    23    24 1   
    61    23    63 1   
    62    23    64 1   
    63    24    25 1   
    64    24    65 1   
    65    24    66 1   
    66    25    45 1   
    67    25    46 1   
@<TRIPOS>SUBSTRUCTURE
     1 1D4         1 TEMP              0 ****  ****    0 ROOT
