@<TRIPOS>MOLECULE
1D4
   66    67     1     0     0
SMALL
No Charge or Current Charge


@<TRIPOS>ATOM
      1 O3          -2.4410     1.4970    -1.6520 oh         1 1D4      -0.697000
      2 C12         -2.8890     0.3260    -0.9240 c6         1 1D4       0.157300
      3 C5          -1.7860    -0.1750     0.0620 c6         1 1D4       0.357300
      4 O2          -2.2290    -1.3770     0.7170 os         1 1D4      -0.485000
      5 C6          -3.3750    -1.1710     1.5610 c6         1 1D4       0.186300
      6 C7          -3.6540    -2.5090     2.2850 c3         1 1D4      -0.087100
      7 C8          -4.5760    -0.6990     0.7040 c6         1 1D4      -0.148400
      8 C9          -4.2110     0.5810    -0.1100 c6         1 1D4       0.194500
      9 N           -5.3600     1.0820    -0.9440 n3         1 1D4      -0.710600
     10 C10         -5.8010     0.1800    -2.0380 c3         1 1D4       0.160600
     11 C11         -6.4960     1.6060    -0.1520 c3         1 1D4       0.160600
     12 O1          -0.5630    -0.4430    -0.6550 os         1 1D4      -0.462000
     13 C4           0.5910    -0.8510     0.1100 c3         1 1D4       0.182300
     14 C13          1.6580    -1.3180    -0.9200 c3         1 1D4      -0.092400
     15 C14          2.9040    -2.0250    -0.3200 c3         1 1D4      -0.075400
     16 C15          3.9200    -2.4880    -1.3990 c3         1 1D4      -0.073400
     17 C16          5.4160    -2.2610    -1.0470 c3         1 1D4      -0.072900
     18 C17          5.8550    -0.7690    -1.0760 c3         1 1D4      -0.084900
     19 C18          6.2410    -0.1540     0.3000 c3         1 1D4      -0.072400
     20 C19          5.7490     1.3040     0.4990 c3         1 1D4      -0.072400
     21 C20          4.2360     1.3480     0.7960 c3         1 1D4      -0.084900
     22 C21          3.5810     2.7430     0.8210 c3         1 1D4      -0.072900
     23 C1           2.0700     2.7190     1.1920 c3         1 1D4      -0.073400
     24 C2           1.1960     1.7190     0.3810 c3         1 1D4      -0.075400
     25 C3           1.0420     0.3140     1.0450 c3         1 1D4      -0.092400
     26 H3          -1.5280     1.2830    -1.9550 ho         1 1D4       0.512000
     27 H12         -3.0750    -0.4940    -1.6330 h1         1 1D4       0.050700
     28 H5          -1.6050     0.6060     0.8150 h2         1 1D4       0.028700
     29 H9          -3.9640     1.3620     0.6260 h1         1 1D4       0.062700
     30 H6          -3.1310    -0.4080     2.3150 h1         1 1D4       0.029700
     31 H71C        -2.7870    -2.8200     2.8810 hc         1 1D4       0.045033
     32 H72C        -4.5080    -2.4160     2.9660 hc         1 1D4       0.045033
     33 H73C        -3.8790    -3.3110     1.5720 hc         1 1D4       0.045033
     34 H81C        -4.8760    -1.5100     0.0280 hc         1 1D4       0.055700
     35 H82C        -5.4310    -0.5050     1.3650 hc         1 1D4       0.055700
     36 H101        -6.2490    -0.7390    -1.6390 h1         1 1D4       0.029200
     37 H102        -6.5550     0.6770    -2.6620 h1         1 1D4       0.029200
     38 H103        -4.9640    -0.0960    -2.6910 h1         1 1D4       0.029200
     39 H111        -6.1460     2.3180     0.6080 h1         1 1D4       0.029200
     40 H112        -7.2090     2.1310    -0.8010 h1         1 1D4       0.029200
     41 H113        -7.0350     0.7950     0.3560 h1         1 1D4       0.029200
     42 H4           0.3400    -1.7180     0.7360 h1         1 1D4       0.048700
     43 H131         1.1770    -2.0150    -1.6170 hc         1 1D4       0.048450
     44 H132         1.9850    -0.4610    -1.5200 hc         1 1D4       0.048450
     45 H31C         0.3280     0.4010     1.8730 hc         1 1D4       0.048450
     46 H32C         1.9750     0.0180     1.5290 hc         1 1D4       0.048450
     47 H141         3.4030    -1.3690     0.3990 hc         1 1D4       0.042200
     48 H142         2.5790    -2.8990     0.2570 hc         1 1D4       0.042200
     49 H151         3.7600    -3.5570    -1.5880 hc         1 1D4       0.039200
     50 H152         3.7110    -1.9840    -2.3510 hc         1 1D4       0.039200
     51 H161         5.6430    -2.7200    -0.0770 hc         1 1D4       0.037700
     52 H162         6.0180    -2.8070    -1.7840 hc         1 1D4       0.037700
     53 H171         6.7230    -0.6740    -1.7410 hc         1 1D4       0.039450
     54 H172         5.0710    -0.1710    -1.5550 hc         1 1D4       0.039450
     55 H181         5.8460    -0.7690     1.1180 hc         1 1D4       0.037950
     56 H182         7.3330    -0.1800     0.4010 hc         1 1D4       0.037950
     57 H191         6.2900     1.7600     1.3370 hc         1 1D4       0.037950
     58 H192         5.9780     1.8980    -0.3950 hc         1 1D4       0.037950
     59 H201         3.7270     0.7690     0.0230 hc         1 1D4       0.039450
     60 H202         4.0610     0.8520     1.7580 hc         1 1D4       0.039450
     61 H211         4.1140     3.3830     1.5360 hc         1 1D4       0.037700
     62 H212         3.6980     3.2060    -0.1660 hc         1 1D4       0.037700
     63 H11C         1.9590     2.5120     2.2640 hc         1 1D4       0.039200
     64 H12C         1.6740     3.7310     1.0380 hc         1 1D4       0.039200
     65 H21C         0.1940     2.1500     0.2640 hc         1 1D4       0.042200
     66 H22C         1.6010     1.6280    -0.6330 hc         1 1D4       0.042200
@<TRIPOS>BOND
     1     1     2 1   
     2     1    26 1   
     3     2     3 1   
     4     2     8 1   
     5     2    27 1   
     6     3     4 1   
     7     3    12 1   
     8     3    28 1   
     9     4     5 1   
    10     5     6 1   
    11     5     7 1   
    12     5    30 1   
    13     6    31 1   
    14     6    32 1   
    15     6    33 1   
    16     7     8 1   
    17     7    34 1   
    18     7    35 1   
    19     8     9 1   
    20     8    29 1   
    21     9    10 1   
    22     9    11 1   
    23    10    36 1   
    24    10    37 1   
    25    10    38 1   
    26    11    39 1   
    27    11    40 1   
    28    11    41 1   
    29    12    13 1   
    30    13    14 1   
    31    13    25 1   
    32    13    42 1   
    33    14    15 1   
    34    14    43 1   
    35    14    44 1   
    36    15    16 1   
    37    15    47 1   
    38    15    48 1   
    39    16    17 1   
    40    16    49 1   
    41    16    50 1   
    42    17    18 1   
    43    17    51 1   
    44    17    52 1   
    45    18    19 1   
    46    18    53 1   
    47    18    54 1   
    48    19    20 1   
    49    19    55 1   
    50    19    56 1   
    51    20    21 1   
    52    20    57 1   
    53    20    58 1   
    54    21    22 1   
    55    21    59 1   
    56    21    60 1   
    57    22    23 1   
    58    22    61 1   
    59    22    62 1   
    60    23    24 1   
    61    23    63 1   
    62    23    64 1   
    63    24    25 1   
    64    24    65 1   
    65    24    66 1   
    66    25    45 1   
    67    25    46 1   
@<TRIPOS>SUBSTRUCTURE
     1 1D4         1 TEMP              0 ****  ****    0 ROOT
