@<TRIPOS>MOLECULE
1D5
   43    46     1     0     0
SMALL
bcc


@<TRIPOS>ATOM
      1 OAA         -8.1380    -0.5020    -1.4660 o          1 1D5      -0.825800
      2 CAS         -7.0470    -0.8800    -0.9980 c          1 1D5       0.936600
      3 OAD         -6.8340    -1.8910    -0.3070 o          1 1D5      -0.825800
      4 CAP         -5.8350     0.0260    -1.3410 c3         1 1D5      -0.199100
      5 CAZ         -4.5560    -0.3950    -0.6930 ca         1 1D5       0.032700
      6 CAJ         -4.2310     0.0370     0.5920 ca         1 1D5      -0.125000
      7 CAM         -3.0540    -0.3520     1.2070 ca         1 1D5      -0.119500
      8 CAI         -3.6600    -1.2380    -1.3450 ca         1 1D5      -0.125000
      9 CAL         -2.4820    -1.6470    -0.7360 ca         1 1D5      -0.119500
     10 CBB         -2.1790    -1.2010     0.5430 ca         1 1D5      -0.013400
     11 NBE         -0.9620    -1.5810     1.1540 n          1 1D5      -0.360000
     12 CBD          0.3290    -1.1080     0.6660 c5         1 1D5       0.247200
     13 CBC          0.3650     0.3860     0.6130 cc         1 1D5      -0.086400
     14 SAQ          0.5510     1.3060     2.0550 ss         1 1D5      -0.031800
     15 CAN          0.3790     2.7830     1.2080 cc         1 1D5      -0.092100
     16 CAX          0.1930     2.5580    -0.1190 cd         1 1D5      -0.048900
     17 BRA         -0.0200     3.9270    -1.3780 br         1 1D5      -0.074100
     18 CAO          0.1810     1.1820    -0.4730 cd         1 1D5      -0.094000
     19 CAV         -0.8550    -2.3330     2.2630 c          1 1D5       0.660700
     20 OAC         -1.7290    -2.8700     2.9130 o          1 1D5      -0.594500
     21 CAU          0.6020    -2.3950     2.5760 ce         1 1D5       0.118900
     22 OAE          1.0250    -3.0620     3.6190 oh         1 1D5      -0.430100
     23 CAW          1.3030    -1.7010     1.6570 cf         1 1D5      -0.318400
     24 CAT          2.7500    -1.4840     1.7090 c          1 1D5       0.641900
     25 OAB          3.3680    -1.7090     2.7350 o          1 1D5      -0.520100
     26 CBA          3.4830    -0.9590     0.5430 cc         1 1D5      -0.147700
     27 SAR          2.9810    -1.1100    -1.1020 ss         1 1D5       0.007200
     28 CAY          4.3960    -0.3200    -1.6460 cc         1 1D5       0.018300
     29 CLA          4.6540    -0.0760    -3.3110 cl         1 1D5      -0.051400
     30 CAH          5.2240     0.0490    -0.6270 cd         1 1D5      -0.156000
     31 CAK          4.6980    -0.3310     0.6250 cd         1 1D5      -0.092000
     32 H2          -5.7190     0.0350    -2.4290 hc         1 1D5       0.035200
     33 H3          -6.0810     1.0530    -1.0580 hc         1 1D5       0.035200
     34 H4          -4.9050     0.7020     1.1180 ha         1 1D5       0.132500
     35 H5          -2.8070     0.0160     2.1950 ha         1 1D5       0.118000
     36 H6          -3.8840    -1.5880    -2.3450 ha         1 1D5       0.132500
     37 H7          -1.8030    -2.3110    -1.2570 ha         1 1D5       0.118000
     38 H8           0.4770    -1.4980    -0.3460 h1         1 1D5       0.082700
     39 H9           0.4410     3.7270     1.7270 h4         1 1D5       0.177000
     40 H10          0.0370     0.8100    -1.4770 ha         1 1D5       0.170000
     41 H11          0.2710    -3.4780     4.0690 ho         1 1D5       0.457000
     42 H12          6.1620     0.5640    -0.7700 ha         1 1D5       0.161000
     43 H13          5.1960    -0.1380     1.5650 ha         1 1D5       0.167000
@<TRIPOS>BOND
     1     1     2 1   
     2     2     3 1   
     3     2     4 1   
     4     4     5 1   
     5     4    32 1   
     6     4    33 1   
     7     5     6 ar  
     8     5     8 ar  
     9     6     7 ar  
    10     6    34 1   
    11     7    10 ar  
    12     7    35 1   
    13     8     9 ar  
    14     8    36 1   
    15     9    10 ar  
    16     9    37 1   
    17    10    11 1   
    18    11    12 1   
    19    11    19 1   
    20    12    13 1   
    21    12    23 1   
    22    12    38 1   
    23    13    14 1   
    24    13    18 2   
    25    14    15 1   
    26    15    16 2   
    27    15    39 1   
    28    16    17 1   
    29    16    18 1   
    30    18    40 1   
    31    19    20 2   
    32    19    21 1   
    33    21    22 1   
    34    21    23 2   
    35    22    41 1   
    36    23    24 1   
    37    24    25 2   
    38    24    26 1   
    39    26    27 1   
    40    26    31 2   
    41    27    28 1   
    42    28    29 1   
    43    28    30 2   
    44    30    31 1   
    45    30    42 1   
    46    31    43 1   
@<TRIPOS>SUBSTRUCTURE
     1 1D5         1 TEMP              0 ****  ****    0 ROOT
