@<TRIPOS>MOLECULE
1D5
   43    46     1     0     0
SMALL
No Charge or Current Charge


@<TRIPOS>ATOM
      1 OAA         -7.6000    -1.8980    -0.5730 o          1 1D5      -0.720500
      2 CAS         -6.8830    -1.5300    -1.4930 c          1 1D5       0.726000
      3 OAD         -6.6390    -2.2150    -2.4750 o          1 1D5      -0.720500
      4 CAP         -6.1380    -0.1990    -1.3380 c3         1 1D5      -0.199100
      5 CAZ         -4.8110    -0.4420    -0.6270 ca         1 1D5       0.032700
      6 CAJ         -4.7310    -0.3890     0.7760 ca         1 1D5      -0.107000
      7 CAM         -3.5070    -0.6110     1.4300 ca         1 1D5      -0.101500
      8 CAI         -3.6520    -0.7450    -1.3630 ca         1 1D5      -0.107000
      9 CAL         -2.4280    -0.9660    -0.7070 ca         1 1D5      -0.101500
     10 CBB         -2.3240    -0.8370     0.6940 ca         1 1D5      -0.106000
     11 NBE         -1.0950    -1.2170     1.3540 n          1 1D5      -0.200400
     12 CBD          0.2570    -0.9190     0.8100 c5         1 1D5       0.247200
     13 CBC          0.4480     0.5670     0.6040 cc         1 1D5      -0.231300
     14 SAQ          0.9060     1.6840     1.8840 ss         1 1D5       0.258000
     15 CAN          0.8680     3.0350     0.7560 cc         1 1D5      -0.219000
     16 CAX          0.5010     2.6240    -0.5000 cd         1 1D5      -0.048900
     17 BrA          0.3350     3.7850    -1.9750 br         1 1D5      -0.074100
     18 CAO          0.2570     1.2280    -0.5850 cd         1 1D5      -0.076000
     19 CAV         -0.9720    -1.9280     2.5520 c          1 1D5       0.518200
     20 OAC         -1.8760    -2.3670     3.2560 o          1 1D5      -0.519000
     21 CAU          0.4840    -2.0700     2.8080 ce         1 1D5       0.118900
     22 OAE          0.9190    -2.6990     3.9400 oh         1 1D5      -0.469100
     23 CAW          1.2640    -1.5250     1.8370 cf         1 1D5      -0.318400
     24 CAT          2.7630    -1.4000     1.8280 c          1 1D5       0.641900
     25 OAB          3.3800    -1.6390     2.8580 o          1 1D5      -0.520100
     26 CBA          3.5300    -0.9940     0.6200 cc         1 1D5      -0.292600
     27 SAR          2.8930    -0.8260    -1.0170 ss         1 1D5       0.297000
     28 CAY          4.4890    -0.4130    -1.6270 cc         1 1D5      -0.035000
     29 ClA          4.7810    -0.0390    -3.2980 cl         1 1D5      -0.143000
     30 CAH          5.4330    -0.4390    -0.6370 cd         1 1D5      -0.138000
     31 CAK          4.8940    -0.7770     0.6350 cd         1 1D5      -0.074000
     32 H2          -5.9040     0.2190    -2.3240 hc         1 1D5       0.035200
     33 H3          -6.7180     0.4880    -0.7110 hc         1 1D5       0.035200
     34 H4          -5.6230    -0.1830     1.3630 ha         1 1D5       0.114500
     35 H5          -3.4830    -0.5670     2.5150 ha         1 1D5       0.100000
     36 H6          -3.7010    -0.8260    -2.4460 ha         1 1D5       0.114500
     37 H7          -1.5620    -1.2380    -1.3040 ha         1 1D5       0.100000
     38 H8           0.3630    -1.4400    -0.1500 h1         1 1D5       0.082700
     39 H9           1.1120     4.0290     1.1060 h4         1 1D5       0.159000
     40 H10         -0.0460     0.7380    -1.5050 ha         1 1D5       0.152000
     41 H11          0.1130    -2.9790     4.4290 ho         1 1D5       0.496000
     42 H12          6.4840    -0.2250    -0.8070 ha         1 1D5       0.143000
     43 H13          5.5060    -0.8490     1.5300 ha         1 1D5       0.149000
@<TRIPOS>BOND
     1     1     2 1   
     2     2     3 1   
     3     2     4 1   
     4     4     5 1   
     5     4    32 1   
     6     4    33 1   
     7     5     6 ar  
     8     5     8 ar  
     9     6     7 ar  
    10     6    34 1   
    11     7    10 ar  
    12     7    35 1   
    13     8     9 ar  
    14     8    36 1   
    15     9    10 ar  
    16     9    37 1   
    17    10    11 1   
    18    11    12 1   
    19    11    19 1   
    20    12    13 1   
    21    12    23 1   
    22    12    38 1   
    23    13    14 1   
    24    13    18 2   
    25    14    15 1   
    26    15    16 2   
    27    15    39 1   
    28    16    17 1   
    29    16    18 1   
    30    18    40 1   
    31    19    20 2   
    32    19    21 1   
    33    21    22 1   
    34    21    23 2   
    35    22    41 1   
    36    23    24 1   
    37    24    25 2   
    38    24    26 1   
    39    26    27 1   
    40    26    31 2   
    41    27    28 1   
    42    28    29 1   
    43    28    30 2   
    44    30    31 1   
    45    30    42 1   
    46    31    43 1   
@<TRIPOS>SUBSTRUCTURE
     1 1D5         1 TEMP              0 ****  ****    0 ROOT
