@<TRIPOS>MOLECULE
1D6
   55    59     1     0     0
SMALL
No Charge or Current Charge


@<TRIPOS>ATOM
      1 CAA          5.5490     0.8000    -1.7890 c3         1 1D6      -0.043800
      2 CBA          4.6860    -0.4180    -1.4980 ca         1 1D6      -0.082300
      3 CAO          4.2810    -0.6910    -0.1780 ca         1 1D6      -0.069000
      4 CAI          4.2690    -1.2650    -2.5410 ca         1 1D6      -0.098000
      5 CAH          3.4550    -2.3770    -2.2660 ca         1 1D6      -0.117000
      6 CAJ          3.0400    -2.6400    -0.9500 ca         1 1D6      -0.089000
      7 CBD          3.4430    -1.7900     0.1010 ca         1 1D6      -0.146600
      8 CAW          2.9620    -2.0160     1.5080 c          1 1D6       0.615900
      9 OAC          3.7690    -2.2540     2.3970 o          1 1D6      -0.513100
     10 CAZ          1.4920    -1.9370     1.7900 ce         1 1D6      -0.304400
     11 CAY          0.7680    -2.1160     2.9160 cf         1 1D6       0.108900
     12 OAF          1.2530    -2.5080     4.1140 oh         1 1D6      -0.475100
     13 CAX         -0.6580    -1.7820     2.6810 c          1 1D6       0.517200
     14 OAD         -1.5580    -1.8760     3.5100 o          1 1D6      -0.523000
     15 NBJ         -0.7670    -1.3480     1.3490 n          1 1D6      -0.196400
     16 CBF         -1.9660    -0.8870     0.6830 ca         1 1D6      -0.097000
     17 CAM         -2.2040    -1.2620    -0.6570 ca         1 1D6      -0.111000
     18 CAK         -3.4190    -0.9480    -1.2890 ca         1 1D6      -0.101500
     19 CBB         -4.4430    -0.2950    -0.5810 ca         1 1D6       0.023700
     20 CAS         -5.7610     0.0490    -1.2680 c3         1 1D6      -0.197100
     21 CAV         -6.7400    -1.1220    -1.1100 c          1 1D6       0.725000
     22 OAE         -6.7010    -2.0190    -1.9390 o          1 1D6      -0.721000
     23 OAB         -7.4330    -1.1610    -0.1040 o          1 1D6      -0.721000
     24 CAL         -4.2410     0.0180     0.7740 ca         1 1D6      -0.101500
     25 CAN         -3.0250    -0.2980     1.4060 ca         1 1D6      -0.111000
     26 CBI          0.5580    -1.4540     0.6680 c5         1 1D6       0.220200
     27 CBE          0.8930    -0.0610     0.1310 ca         1 1D6      -0.076300
     28 CAQ          1.0160     0.1450    -1.2640 ca         1 1D6      -0.066000
     29 CBG          1.3930     1.4120    -1.7250 ca         1 1D6       0.057100
     30 OAT          1.5560     1.7650    -3.0260 os         1 1D6      -0.341100
     31 CAR          2.0670     3.1400    -2.9240 c5         1 1D6       0.373600
     32 OAU          1.9760     3.5890    -1.5270 os         1 1D6      -0.330100
     33 CBH          1.6310     2.4480    -0.8700 ca         1 1D6       0.056100
     34 CBC          1.5040     2.2900     0.5180 ca         1 1D6       0.123000
     35 ClA          1.8120     3.6280     1.6220 cl         1 1D6      -0.177000
     36 CAP          1.1360     1.0240     1.0150 ca         1 1D6      -0.072000
     37 H1           4.9510     1.7180    -1.7510 hc         1 1D6       0.040367
     38 H2           6.3590     0.8950    -1.0560 hc         1 1D6       0.040367
     39 H3           6.0100     0.7420    -2.7830 hc         1 1D6       0.040367
     40 H4           4.5890    -0.0290     0.6290 ha         1 1D6       0.123000
     41 H5           4.5730    -1.0630    -3.5660 ha         1 1D6       0.109000
     42 H6           3.1390    -3.0310    -3.0760 ha         1 1D6       0.114000
     43 H7           2.4070    -3.5010    -0.7480 ha         1 1D6       0.120000
     44 H10          0.4960    -2.5420     4.7410 ho         1 1D6       0.495000
     45 H11         -1.4480    -1.7980    -1.2250 ha         1 1D6       0.100000
     46 H12         -3.5690    -1.2260    -2.3290 ha         1 1D6       0.114500
     47 H13         -6.1590     0.9430    -0.7720 hc         1 1D6       0.034700
     48 H14         -5.5390     0.2150    -2.3290 hc         1 1D6       0.034700
     49 H16         -5.0310     0.5000     1.3450 ha         1 1D6       0.114500
     50 H17         -2.9050    -0.0430     2.4550 ha         1 1D6       0.100000
     51 H18          0.5040    -2.1900    -0.1440 h1         1 1D6       0.079700
     52 H19          0.8460    -0.6620    -1.9710 ha         1 1D6       0.140000
     53 H20          3.1200     3.1510    -3.2320 h2         1 1D6       0.061200
     54 H21          1.0500     0.8830     2.0900 ha         1 1D6       0.140000
     55 H8           1.4790     3.8040    -3.5680 h2         1 1D6       0.061200
@<TRIPOS>BOND
     1     1     2 1   
     2     1    37 1   
     3     1    38 1   
     4     1    39 1   
     5     2     3 ar  
     6     2     4 ar  
     7     3     7 ar  
     8     3    40 1   
     9     4     5 ar  
    10     4    41 1   
    11     5     6 ar  
    12     5    42 1   
    13     6     7 ar  
    14     6    43 1   
    15     7     8 1   
    16     8     9 2   
    17     8    10 1   
    18    10    11 2   
    19    10    26 1   
    20    11    12 1   
    21    11    13 1   
    22    12    44 1   
    23    13    14 2   
    24    13    15 1   
    25    15    16 1   
    26    15    26 1   
    27    16    17 ar  
    28    16    25 ar  
    29    17    18 ar  
    30    17    45 1   
    31    18    19 ar  
    32    18    46 1   
    33    19    20 1   
    34    19    24 ar  
    35    20    21 1   
    36    20    47 1   
    37    20    48 1   
    38    21    22 1   
    39    21    23 1   
    40    24    25 ar  
    41    24    49 1   
    42    25    50 1   
    43    26    27 1   
    44    26    51 1   
    45    27    28 ar  
    46    27    36 ar  
    47    28    29 ar  
    48    28    52 1   
    49    29    30 1   
    50    29    33 ar  
    51    30    31 1   
    52    31    32 1   
    53    31    53 1   
    54    31    55 1   
    55    32    33 1   
    56    33    34 ar  
    57    34    35 1   
    58    34    36 ar  
    59    36    54 1   
@<TRIPOS>SUBSTRUCTURE
     1 1D6         1 TEMP              0 ****  ****    0 ROOT
