@<TRIPOS>MOLECULE
1D6
   55    59     1     0     0
SMALL
bcc


@<TRIPOS>ATOM
      1 CAA          5.5540     0.8340    -1.7890 c3         1 1D6      -0.043800
      2 CBA          4.7430    -0.3800    -1.4450 ca         1 1D6      -0.082300
      3 CAO          4.2790    -0.5880    -0.1520 ca         1 1D6      -0.087000
      4 CAI          4.4170    -1.3180    -2.4240 ca         1 1D6      -0.116000
      5 CAH          3.6410    -2.4260    -2.1230 ca         1 1D6      -0.135000
      6 CAJ          3.1490    -2.6050    -0.8370 ca         1 1D6      -0.107000
      7 CBD          3.4700    -1.6800     0.1490 ca         1 1D6      -0.146600
      8 CAW          2.9460    -1.8380     1.5350 c          1 1D6       0.615900
      9 OAC          3.6940    -1.8920     2.4920 o          1 1D6      -0.513100
     10 CAZ          1.4930    -1.8670     1.6890 ce         1 1D6      -0.304400
     11 CAY          0.8040    -2.1550     2.8070 cf         1 1D6       0.108900
     12 OAF          1.2390    -2.5650     3.9740 oh         1 1D6      -0.436100
     13 CAX         -0.6530    -1.9490     2.5710 c          1 1D6       0.659700
     14 OAD         -1.5250    -2.1540     3.3910 o          1 1D6      -0.598500
     15 NBJ         -0.7630    -1.5040     1.3020 n          1 1D6      -0.356000
     16 CBF         -1.9700    -1.1350     0.6720 ca         1 1D6      -0.004400
     17 CAM         -2.2690    -1.6140    -0.5970 ca         1 1D6      -0.129000
     18 CAK         -3.4380    -1.2160    -1.2290 ca         1 1D6      -0.119500
     19 CBB         -4.3400    -0.3550    -0.6120 ca         1 1D6       0.023700
     20 CAS         -5.6100     0.0480    -1.2880 c3         1 1D6      -0.197100
     21 CAV         -6.8480    -0.7910    -0.8740 c          1 1D6       0.935600
     22 OAE         -7.8730    -0.5960    -1.5560 o          1 1D6      -0.826300
     23 OAB         -6.7260    -1.5600     0.0950 o          1 1D6      -0.826300
     24 CAL         -4.0240     0.1100     0.6630 ca         1 1D6      -0.119500
     25 CAN         -2.8510    -0.2600     1.3000 ca         1 1D6      -0.129000
     26 CBI          0.5210    -1.4360     0.6180 c5         1 1D6       0.220200
     27 CBE          0.8070    -0.0560     0.0710 ca         1 1D6      -0.076300
     28 CAQ          1.0440     0.0990    -1.2980 ca         1 1D6      -0.084000
     29 CBG          1.3590     1.3590    -1.7370 ca         1 1D6       0.057100
     30 OAT          1.6240     1.7770    -2.9970 os         1 1D6      -0.317900
     31 CAR          2.0700     3.1220    -2.8850 c5         1 1D6       0.327200
     32 OAU          1.7250     3.5620    -1.5740 os         1 1D6      -0.306900
     33 CBH          1.4250     2.4450    -0.8820 ca         1 1D6       0.056100
     34 CBC          1.1750     2.2980     0.4600 ca         1 1D6       0.031400
     35 CLA          1.2510     3.6630     1.5080 cl         1 1D6      -0.085400
     36 CAP          0.8660     1.0250     0.9380 ca         1 1D6      -0.090000
     37 H1           4.9540     1.5560    -2.3470 hc         1 1D6       0.040367
     38 H2           5.9220     1.3370    -0.8960 hc         1 1D6       0.040367
     39 H3           6.4090     0.5800    -2.4140 hc         1 1D6       0.040367
     40 H4           4.5190     0.1290     0.6240 ha         1 1D6       0.141000
     41 H5           4.7770    -1.1790    -3.4370 ha         1 1D6       0.127000
     42 H6           3.4100    -3.1500    -2.8940 ha         1 1D6       0.132000
     43 H7           2.5320    -3.4650    -0.6070 ha         1 1D6       0.138000
     44 H10          0.4880    -2.7100     4.5720 ho         1 1D6       0.456000
     45 H11         -1.5960    -2.2980    -1.0990 ha         1 1D6       0.118000
     46 H12         -3.6510    -1.5930    -2.2220 ha         1 1D6       0.132500
     47 H13         -5.8350     1.0960    -1.0630 hc         1 1D6       0.034700
     48 H14         -5.4970    -0.0070    -2.3730 hc         1 1D6       0.034700
     49 H16         -4.6970     0.7940     1.1650 ha         1 1D6       0.132500
     50 H17         -2.6150     0.1470     2.2730 ha         1 1D6       0.118000
     51 H18          0.5240    -2.1480    -0.2130 h1         1 1D6       0.079700
     52 H19          1.0060    -0.7440    -1.9740 ha         1 1D6       0.158000
     53 H20          3.1560     3.1670    -3.0140 h2         1 1D6       0.061200
     54 H21          0.6860     0.8900     1.9970 ha         1 1D6       0.158000
     55 H8           1.5690     3.7430    -3.6260 h2         1 1D6       0.061200
@<TRIPOS>BOND
     1     1     2 1   
     2     1    37 1   
     3     1    38 1   
     4     1    39 1   
     5     2     3 ar  
     6     2     4 ar  
     7     3     7 ar  
     8     3    40 1   
     9     4     5 ar  
    10     4    41 1   
    11     5     6 ar  
    12     5    42 1   
    13     6     7 ar  
    14     6    43 1   
    15     7     8 1   
    16     8     9 2   
    17     8    10 1   
    18    10    11 2   
    19    10    26 1   
    20    11    12 1   
    21    11    13 1   
    22    12    44 1   
    23    13    14 2   
    24    13    15 1   
    25    15    16 1   
    26    15    26 1   
    27    16    17 ar  
    28    16    25 ar  
    29    17    18 ar  
    30    17    45 1   
    31    18    19 ar  
    32    18    46 1   
    33    19    20 1   
    34    19    24 ar  
    35    20    21 1   
    36    20    47 1   
    37    20    48 1   
    38    21    22 1   
    39    21    23 1   
    40    24    25 ar  
    41    24    49 1   
    42    25    50 1   
    43    26    27 1   
    44    26    51 1   
    45    27    28 ar  
    46    27    36 ar  
    47    28    29 ar  
    48    28    52 1   
    49    29    30 1   
    50    29    33 ar  
    51    30    31 1   
    52    31    32 1   
    53    31    53 1   
    54    31    55 1   
    55    32    33 1   
    56    33    34 ar  
    57    34    35 1   
    58    34    36 ar  
    59    36    54 1   
@<TRIPOS>SUBSTRUCTURE
     1 1D6         1 TEMP              0 ****  ****    0 ROOT
