@<TRIPOS>MOLECULE
1D8
   52    56     1     0     0
SMALL
No Charge or Current Charge


@<TRIPOS>ATOM
      1 FAF          4.7880    -2.4800     1.3210 f          1 1D8      -0.114333
      2 CBL          4.6060    -1.7990     0.1670 c3         1 1D8       0.356300
      3 FAG          5.8210    -1.6730    -0.4130 f          1 1D8      -0.114333
      4 FAH          3.8650    -2.5960    -0.6370 f          1 1D8      -0.114333
      5 CBH          3.9490    -0.4330     0.3850 ca         1 1D8      -0.201300
      6 CAR          3.2470     0.1890    -0.6690 ca         1 1D8      -0.022000
      7 CAO          4.0320     0.2220     1.6330 ca         1 1D8      -0.049000
      8 CAK          3.4090     1.4670     1.8250 ca         1 1D8      -0.127000
      9 CAM          2.6880     2.0650     0.7800 ca         1 1D8      -0.058000
     10 CBD          2.5990     1.4240    -0.4700 ca         1 1D8      -0.150600
     11 CAX          1.7810     2.0130    -1.5830 c          1 1D8       0.615900
     12 OAB          2.3280     2.3770    -2.6150 o          1 1D8      -0.509100
     13 CBA          0.3000     2.1300    -1.4000 ce         1 1D8      -0.314400
     14 CAY         -0.6830     2.6180    -2.1880 cf         1 1D8       0.117900
     15 OAE         -0.5100     3.2170    -3.3870 oh         1 1D8      -0.474100
     16 CAZ         -2.0130     2.3750    -1.5790 c          1 1D8       0.518200
     17 OAC         -3.0890     2.7310    -2.0480 o          1 1D8      -0.518000
     18 NBK         -1.7980     1.6750    -0.3800 n          1 1D8      -0.197400
     19 CBF         -2.8090     1.2040     0.5420 ca         1 1D8      -0.093000
     20 CAQ         -4.1150     0.8890     0.1010 ca         1 1D8      -0.068000
     21 CBC         -5.1460     0.5660     1.0150 ca         1 1D8      -0.123600
     22 CAW         -6.5320     0.1810     0.5210 c          1 1D8       0.713600
     23 OAD         -7.4070    -0.0410     1.3460 o          1 1D8      -0.712500
     24 OAA         -6.7240     0.1040    -0.6850 o          1 1D8      -0.712500
     25 CAL         -4.8620     0.6150     2.3980 ca         1 1D8      -0.080000
     26 CAJ         -3.5900     0.9970     2.8480 ca         1 1D8      -0.136000
     27 CAN         -2.5790     1.3120     1.9290 ca         1 1D8      -0.146000
     28 CBJ         -0.3320     1.5030    -0.1460 c5         1 1D8       0.224200
     29 CBE         -0.0790     0.0020     0.0010 ca         1 1D8      -0.085300
     30 CAS          0.3990    -0.5140     1.2300 ca         1 1D8      -0.076000
     31 CBG          0.6970    -1.8780     1.3160 ca         1 1D8       0.055100
     32 OAU          1.1660    -2.5190     2.4170 os         1 1D8      -0.348100
     33 CAT          1.4270    -3.8750     1.9110 c5         1 1D8       0.376600
     34 OAV          0.8670    -4.0030     0.5580 os         1 1D8      -0.325100
     35 CBI          0.5270    -2.7210     0.2560 ca         1 1D8       0.068100
     36 CBB          0.0410    -2.2530    -0.9740 ca         1 1D8       0.126000
     37 ClA         -0.1750    -3.3400    -2.3430 cl         1 1D8      -0.168000
     38 CAP         -0.2590    -0.8810    -1.0960 ca         1 1D8      -0.067000
     39 H1           3.1730    -0.3010    -1.6390 ha         1 1D8       0.141000
     40 H2           4.5780    -0.2270     2.4600 ha         1 1D8       0.128000
     41 H3           3.4770     1.9630     2.7900 ha         1 1D8       0.119000
     42 H4           2.1990     3.0240     0.9420 ha         1 1D8       0.123000
     43 H5          -1.4010     3.4590    -3.7250 ho         1 1D8       0.497000
     44 H6          -4.3280     0.8550    -0.9640 ha         1 1D8       0.144000
     45 H8          -5.6330     0.3760     3.1290 ha         1 1D8       0.133000
     46 H9          -3.3910     1.0620     3.9160 ha         1 1D8       0.091000
     47 H10         -1.6150     1.6380     2.3080 ha         1 1D8       0.086000
     48 H11         -0.0300     2.0470     0.7580 h1         1 1D8       0.070700
     49 H12          0.5570     0.1330     2.0900 ha         1 1D8       0.133000
     50 H13          2.5110    -4.0320     1.8610 h2         1 1D8       0.063200
     51 H14          0.9690    -4.6170     2.5760 h2         1 1D8       0.063200
     52 H15         -0.6200    -0.5030    -2.0490 ha         1 1D8       0.143000
@<TRIPOS>BOND
     1     1     2 1   
     2     2     3 1   
     3     2     4 1   
     4     2     5 1   
     5     5     6 ar  
     6     5     7 ar  
     7     6    10 ar  
     8     6    39 1   
     9     7     8 ar  
    10     7    40 1   
    11     8     9 ar  
    12     8    41 1   
    13     9    10 ar  
    14     9    42 1   
    15    10    11 1   
    16    11    12 2   
    17    11    13 1   
    18    13    14 2   
    19    13    28 1   
    20    14    15 1   
    21    14    16 1   
    22    15    43 1   
    23    16    17 2   
    24    16    18 1   
    25    18    19 1   
    26    18    28 1   
    27    19    20 ar  
    28    19    27 ar  
    29    20    21 ar  
    30    20    44 1   
    31    21    22 1   
    32    21    25 ar  
    33    22    23 1   
    34    22    24 1   
    35    25    26 ar  
    36    25    45 1   
    37    26    27 ar  
    38    26    46 1   
    39    27    47 1   
    40    28    29 1   
    41    28    48 1   
    42    29    30 ar  
    43    29    38 ar  
    44    30    31 ar  
    45    30    49 1   
    46    31    32 1   
    47    31    35 ar  
    48    32    33 1   
    49    33    34 1   
    50    33    50 1   
    51    33    51 1   
    52    34    35 1   
    53    35    36 ar  
    54    36    37 1   
    55    36    38 ar  
    56    38    52 1   
@<TRIPOS>SUBSTRUCTURE
     1 1D8         1 TEMP              0 ****  ****    0 ROOT
