@<TRIPOS>MOLECULE
1D8
   52    56     1     0     0
SMALL
abcg2


@<TRIPOS>ATOM
      1 FAF          5.3790    -2.1980     0.9920 f          1 1D8      -0.114333
      2 CBL          4.5230    -1.8170     0.0410 c3         1 1D8       0.356300
      3 FAG          5.1850    -1.8510    -1.1230 f          1 1D8      -0.114333
      4 FAH          3.5770    -2.7670    -0.0340 f          1 1D8      -0.114333
      5 CBH          3.9290    -0.4690     0.3040 ca         1 1D8      -0.201300
      6 CAR          3.2080     0.1480    -0.7100 ca         1 1D8      -0.022000
      7 CAO          4.0640     0.1440     1.5430 ca         1 1D8      -0.049000
      8 CAK          3.4770     1.3810     1.7640 ca         1 1D8      -0.127000
      9 CAM          2.7270     1.9860     0.7680 ca         1 1D8      -0.058000
     10 CBD          2.5880     1.3660    -0.4690 ca         1 1D8      -0.150600
     11 CAX          1.7550     1.9840    -1.5450 c          1 1D8       0.615900
     12 OAB          2.2390     2.2770    -2.6200 o          1 1D8      -0.509100
     13 CBA          0.3360     2.1490    -1.2530 ce         1 1D8      -0.314400
     14 CAY         -0.5850     2.7360    -2.0390 cf         1 1D8       0.117900
     15 OAE         -0.4290     3.3740    -3.1730 oh         1 1D8      -0.474100
     16 CAZ         -1.9400     2.5730    -1.4380 c          1 1D8       0.518200
     17 OAC         -2.9670     3.0160    -1.9110 o          1 1D8      -0.518000
     18 NBK         -1.7590     1.8600    -0.3080 n          1 1D8      -0.197400
     19 CBF         -2.7880     1.4470     0.5670 ca         1 1D8      -0.093000
     20 CAQ         -3.8670     0.7240     0.0760 ca         1 1D8      -0.068000
     21 CBC         -4.8770     0.2970     0.9310 ca         1 1D8      -0.123600
     22 CAW         -6.0560    -0.5040     0.3850 c          1 1D8       0.713600
     23 OAD         -6.9120    -0.8650     1.2130 o          1 1D8      -0.712500
     24 OAA         -6.0540    -0.7290    -0.8400 o          1 1D8      -0.712500
     25 CAL         -4.7820     0.5970     2.2870 ca         1 1D8      -0.080000
     26 CAJ         -3.6980     1.3120     2.7780 ca         1 1D8      -0.136000
     27 CAN         -2.6980     1.7460     1.9210 ca         1 1D8      -0.146000
     28 CBJ         -0.3600     1.5410    -0.0600 c5         1 1D8       0.224200
     29 CBE         -0.1230     0.0540     0.0760 ca         1 1D8      -0.085300
     30 CAS          0.3890    -0.4480     1.2770 ca         1 1D8      -0.076000
     31 CBG          0.6500    -1.7930     1.3300 ca         1 1D8       0.055100
     32 OAU          1.1790    -2.5120     2.3450 os         1 1D8      -0.348100
     33 CAT          1.1420    -3.8760     1.9450 c5         1 1D8       0.376600
     34 OAV          0.7510    -3.8980     0.5730 os         1 1D8      -0.325100
     35 CBI          0.3990    -2.6370     0.2630 ca         1 1D8       0.068100
     36 CBB         -0.1250    -2.1500    -0.9080 ca         1 1D8       0.126000
     37 CLA         -0.4300    -3.2150    -2.2270 cl         1 1D8      -0.168000
     38 CAP         -0.3840    -0.7830    -0.9980 ca         1 1D8      -0.067000
     39 H1           3.0950    -0.3240    -1.6790 ha         1 1D8       0.141000
     40 H2           4.6230    -0.3260     2.3400 ha         1 1D8       0.128000
     41 H3           3.5930     1.8670     2.7230 ha         1 1D8       0.119000
     42 H4           2.2580     2.9430     0.9570 ha         1 1D8       0.123000
     43 H5          -1.2890     3.6850    -3.4980 ho         1 1D8       0.497000
     44 H6          -3.9200     0.4710    -0.9740 ha         1 1D8       0.144000
     45 H8          -5.5600     0.2650     2.9610 ha         1 1D8       0.133000
     46 H9          -3.6310     1.5410     3.8340 ha         1 1D8       0.091000
     47 H10         -1.8610     2.3140     2.3050 ha         1 1D8       0.086000
     48 H11         -0.0410     2.0350     0.8640 h1         1 1D8       0.070700
     49 H12          0.5900     0.2030     2.1160 ha         1 1D8       0.133000
     50 H13          2.1310    -4.3220     2.0530 h2         1 1D8       0.063200
     51 H14          0.4070    -4.4200     2.5430 h2         1 1D8       0.063200
     52 H15         -0.7770    -0.3850    -1.9250 ha         1 1D8       0.143000
@<TRIPOS>BOND
     1     1     2 1   
     2     2     3 1   
     3     2     4 1   
     4     2     5 1   
     5     5     6 ar  
     6     5     7 ar  
     7     6    10 ar  
     8     6    39 1   
     9     7     8 ar  
    10     7    40 1   
    11     8     9 ar  
    12     8    41 1   
    13     9    10 ar  
    14     9    42 1   
    15    10    11 1   
    16    11    12 2   
    17    11    13 1   
    18    13    14 2   
    19    13    28 1   
    20    14    15 1   
    21    14    16 1   
    22    15    43 1   
    23    16    17 2   
    24    16    18 1   
    25    18    19 1   
    26    18    28 1   
    27    19    20 ar  
    28    19    27 ar  
    29    20    21 ar  
    30    20    44 1   
    31    21    22 1   
    32    21    25 ar  
    33    22    23 1   
    34    22    24 1   
    35    25    26 ar  
    36    25    45 1   
    37    26    27 ar  
    38    26    46 1   
    39    27    47 1   
    40    28    29 1   
    41    28    48 1   
    42    29    30 ar  
    43    29    38 ar  
    44    30    31 ar  
    45    30    49 1   
    46    31    32 1   
    47    31    35 ar  
    48    32    33 1   
    49    33    34 1   
    50    33    50 1   
    51    33    51 1   
    52    34    35 1   
    53    35    36 ar  
    54    36    37 1   
    55    36    38 ar  
    56    38    52 1   
@<TRIPOS>SUBSTRUCTURE
     1 1D8         1 TEMP              0 ****  ****    0 ROOT
