@<TRIPOS>MOLECULE
1D9
   52    55     1     0     0
SMALL
No Charge or Current Charge


@<TRIPOS>ATOM
      1 FAI          0.5480    -4.0650     1.3790 f          1 1D9      -0.117000
      2 CBL          1.4480    -3.1820     0.8940 c3         1 1D9       0.355300
      3 FAJ          2.0290    -2.5850     1.9600 f          1 1D9      -0.117000
      4 FAK          2.4160    -3.9020     0.2820 f          1 1D9      -0.117000
      5 CBH          0.7850    -2.1780    -0.0550 ca         1 1D9      -0.202300
      6 CAW          0.3020    -0.9420     0.4270 ca         1 1D9      -0.041000
      7 CAT          0.6260    -2.4880    -1.4210 ca         1 1D9      -0.049000
      8 CAN          0.0070    -1.5730    -2.2860 ca         1 1D9      -0.115000
      9 CAQ         -0.4590    -0.3420    -1.8000 ca         1 1D9      -0.044000
     10 CBE         -0.3120    -0.0100    -0.4350 ca         1 1D9      -0.094300
     11 CBI         -0.7830     1.3360     0.1280 c5         1 1D9       0.219200
     12 NBJ         -2.2360     1.4740    -0.1520 n          1 1D9      -0.194400
     13 CBF         -3.2460     0.6170     0.4290 ca         1 1D9      -0.089000
     14 CAU         -4.5040     0.4330    -0.1900 ca         1 1D9      -0.076000
     15 CBC         -5.5430    -0.2910     0.4440 ca         1 1D9      -0.121600
     16 CAX         -6.8740    -0.5190    -0.2560 c          1 1D9       0.713600
     17 OAD         -7.0150    -0.1050    -1.3990 o          1 1D9      -0.712500
     18 OAA         -7.7590    -1.1110     0.3470 o          1 1D9      -0.712500
     19 CAO         -5.3180    -0.7930     1.7460 ca         1 1D9      -0.083000
     20 CAL         -4.0980    -0.5580     2.3960 ca         1 1D9      -0.131000
     21 CAR         -3.0790     0.1590     1.7520 ca         1 1D9      -0.154000
     22 CBA         -2.4300     2.5400    -1.0450 c          1 1D9       0.516200
     23 OAC         -3.4960     2.9780    -1.4650 o          1 1D9      -0.514000
     24 CAZ         -1.0740     3.0590    -1.3920 ce         1 1D9       0.117900
     25 OAE         -0.9270     4.0860    -2.2790 oh         1 1D9      -0.473100
     26 CBB         -0.0750     2.4000    -0.7560 cf         1 1D9      -0.315400
     27 CAY          1.4020     2.5730    -0.8550 c          1 1D9       0.614900
     28 OAB          1.9090     3.3700    -1.6340 o          1 1D9      -0.510100
     29 CBD          2.2710     1.7250     0.0240 ca         1 1D9      -0.151600
     30 CAV          3.1110     0.7540    -0.5530 ca         1 1D9      -0.025000
     31 CBG          3.8960    -0.0920     0.2590 ca         1 1D9      -0.200300
     32 CBK          4.7820    -1.1600    -0.3890 c3         1 1D9       0.358300
     33 FAG          4.1660    -1.7650    -1.4310 f          1 1D9      -0.114000
     34 FAH          5.9280    -0.6240    -0.8650 f          1 1D9      -0.114000
     35 FAF          5.1350    -2.1420     0.4730 f          1 1D9      -0.114000
     36 CAS          3.8500     0.0680     1.6610 ca         1 1D9      -0.050000
     37 CAM          3.0200     1.0440     2.2370 ca         1 1D9      -0.125000
     38 CAP          2.2270     1.8690     1.4240 ca         1 1D9      -0.059000
     39 H1           0.4130    -0.6930     1.4810 ha         1 1D9       0.126000
     40 H2           0.9780    -3.4390    -1.8160 ha         1 1D9       0.125000
     41 H3          -0.1110    -1.8190    -3.3390 ha         1 1D9       0.123000
     42 H4          -0.9320     0.3540    -2.4890 ha         1 1D9       0.129000
     43 H5          -0.5530     1.4600     1.1940 h1         1 1D9       0.071700
     44 H6          -4.6740     0.8210    -1.1900 ha         1 1D9       0.146000
     45 H8          -6.0950    -1.3510     2.2640 ha         1 1D9       0.133000
     46 H9          -3.9450    -0.9260     3.4080 ha         1 1D9       0.092000
     47 H10         -2.1570     0.3500     2.2940 ha         1 1D9       0.085000
     48 H11         -1.8340     4.3450    -2.5580 ho         1 1D9       0.497000
     49 H12          3.1350     0.6450    -1.6370 ha         1 1D9       0.138000
     50 H13          4.4530    -0.5620     2.3120 ha         1 1D9       0.131000
     51 H14          2.9880     1.1570     3.3190 ha         1 1D9       0.122000
     52 H15          1.5830     2.6180     1.8800 ha         1 1D9       0.124000
@<TRIPOS>BOND
     1     1     2 1   
     2     2     3 1   
     3     2     4 1   
     4     2     5 1   
     5     5     6 ar  
     6     5     7 ar  
     7     6    10 ar  
     8     6    39 1   
     9     7     8 ar  
    10     7    40 1   
    11     8     9 ar  
    12     8    41 1   
    13     9    10 ar  
    14     9    42 1   
    15    10    11 1   
    16    11    12 1   
    17    11    26 1   
    18    11    43 1   
    19    12    13 1   
    20    12    22 1   
    21    13    14 ar  
    22    13    21 ar  
    23    14    15 ar  
    24    14    44 1   
    25    15    16 1   
    26    15    19 ar  
    27    16    17 1   
    28    16    18 1   
    29    19    20 ar  
    30    19    45 1   
    31    20    21 ar  
    32    20    46 1   
    33    21    47 1   
    34    22    23 2   
    35    22    24 1   
    36    24    25 1   
    37    24    26 2   
    38    25    48 1   
    39    26    27 1   
    40    27    28 2   
    41    27    29 1   
    42    29    30 ar  
    43    29    38 ar  
    44    30    31 ar  
    45    30    49 1   
    46    31    32 1   
    47    31    36 ar  
    48    32    33 1   
    49    32    34 1   
    50    32    35 1   
    51    36    37 ar  
    52    36    50 1   
    53    37    38 ar  
    54    37    51 1   
    55    38    52 1   
@<TRIPOS>SUBSTRUCTURE
     1 1D9         1 TEMP              0 ****  ****    0 ROOT
