@<TRIPOS>MOLECULE
1D9
   52    55     1     0     0
SMALL
bcc


@<TRIPOS>ATOM
      1 FAI          0.5180    -4.2130     1.3510 f          1 1D9      -0.238300
      2 CBL          1.2420    -3.0880     1.2440 c3         1 1D9       0.719200
      3 FAJ          1.3350    -2.5670     2.4710 f          1 1D9      -0.238300
      4 FAK          2.4770    -3.4680     0.8850 f          1 1D9      -0.238300
      5 CBH          0.6420    -2.1390     0.2550 ca         1 1D9      -0.202300
      6 CAW          0.1960    -0.8860     0.6470 ca         1 1D9      -0.059000
      7 CAT          0.5320    -2.5350    -1.0720 ca         1 1D9      -0.067000
      8 CAN         -0.0380    -1.6750    -1.9980 ca         1 1D9      -0.133000
      9 CAQ         -0.4750    -0.4190    -1.6080 ca         1 1D9      -0.062000
     10 CBE         -0.3480    -0.0160    -0.2860 ca         1 1D9      -0.094300
     11 CBI         -0.7640     1.3730     0.1380 c5         1 1D9       0.219200
     12 NBJ         -2.1800     1.6180    -0.0950 n          1 1D9      -0.354000
     13 CBF         -3.1840     0.7980     0.4630 ca         1 1D9       0.003600
     14 CAU         -4.2820     0.4170    -0.2990 ca         1 1D9      -0.094000
     15 CBC         -5.2700    -0.3960     0.2450 ca         1 1D9      -0.121600
     16 CAX         -6.4770    -0.7970    -0.5980 c          1 1D9       0.924200
     17 OAD         -6.5060    -0.3680    -1.7660 o          1 1D9      -0.817800
     18 OAA         -7.3260    -1.5170    -0.0410 o          1 1D9      -0.817800
     19 CAO         -5.1330    -0.8410     1.5570 ca         1 1D9      -0.101000
     20 CAL         -4.0290    -0.4740     2.3120 ca         1 1D9      -0.149000
     21 CAR         -3.0540     0.3520     1.7740 ca         1 1D9      -0.172000
     22 CBA         -2.3970     2.7190    -0.8480 c          1 1D9       0.658700
     23 OAC         -3.4470     3.2280    -1.1840 o          1 1D9      -0.589500
     24 CAZ         -1.0500     3.2360    -1.2180 ce         1 1D9       0.117900
     25 OAE         -0.9280     4.2940    -1.9800 oh         1 1D9      -0.434100
     26 CBB         -0.0970     2.4670    -0.6590 cf         1 1D9      -0.315400
     27 CAY          1.3410     2.5810    -0.8670 c          1 1D9       0.614900
     28 OAB          1.8190     3.3370    -1.6890 o          1 1D9      -0.510100
     29 CBD          2.2120     1.6720    -0.0640 ca         1 1D9      -0.151600
     30 CAV          3.0150     0.7560    -0.7270 ca         1 1D9      -0.043000
     31 CBG          3.7920    -0.1350     0.0020 ca         1 1D9      -0.200300
     32 CBK          4.6220    -1.1290    -0.7500 c3         1 1D9       0.722200
     33 FAG          3.8710    -1.9070    -1.5400 f          1 1D9      -0.235300
     34 FAH          5.5080    -0.5190    -1.5520 f          1 1D9      -0.235300
     35 FAF          5.3170    -1.9370     0.0550 f          1 1D9      -0.235300
     36 CAS          3.7940    -0.0900     1.3890 ca         1 1D9      -0.068000
     37 CAM          3.0160     0.8530     2.0470 ca         1 1D9      -0.143000
     38 CAP          2.2170     1.7250     1.3260 ca         1 1D9      -0.077000
     39 H1           0.2820    -0.5640     1.6770 ha         1 1D9       0.144000
     40 H2           0.8830    -3.5070    -1.3940 ha         1 1D9       0.143000
     41 H3          -0.1310    -1.9830    -3.0310 ha         1 1D9       0.141000
     42 H4          -0.9060     0.2500    -2.3440 ha         1 1D9       0.147000
     43 H5          -0.5460     1.4980     1.2040 h1         1 1D9       0.071700
     44 H6          -4.3780     0.7370    -1.3270 ha         1 1D9       0.164000
     45 H8          -5.8950    -1.4780     1.9850 ha         1 1D9       0.151000
     46 H9          -3.9250    -0.8240     3.3300 ha         1 1D9       0.110000
     47 H10         -2.2070     0.6490     2.3790 ha         1 1D9       0.103000
     48 H11         -1.8060     4.6390    -2.2050 ho         1 1D9       0.458000
     49 H12          3.0020     0.7230    -1.8100 ha         1 1D9       0.156000
     50 H13          4.3950    -0.7740     1.9710 ha         1 1D9       0.149000
     51 H14          3.0270     0.8980     3.1270 ha         1 1D9       0.140000
     52 H15          1.6030     2.4480     1.8490 ha         1 1D9       0.142000
@<TRIPOS>BOND
     1     1     2 1   
     2     2     3 1   
     3     2     4 1   
     4     2     5 1   
     5     5     6 ar  
     6     5     7 ar  
     7     6    10 ar  
     8     6    39 1   
     9     7     8 ar  
    10     7    40 1   
    11     8     9 ar  
    12     8    41 1   
    13     9    10 ar  
    14     9    42 1   
    15    10    11 1   
    16    11    12 1   
    17    11    26 1   
    18    11    43 1   
    19    12    13 1   
    20    12    22 1   
    21    13    14 ar  
    22    13    21 ar  
    23    14    15 ar  
    24    14    44 1   
    25    15    16 1   
    26    15    19 ar  
    27    16    17 1   
    28    16    18 1   
    29    19    20 ar  
    30    19    45 1   
    31    20    21 ar  
    32    20    46 1   
    33    21    47 1   
    34    22    23 2   
    35    22    24 1   
    36    24    25 1   
    37    24    26 2   
    38    25    48 1   
    39    26    27 1   
    40    27    28 2   
    41    27    29 1   
    42    29    30 ar  
    43    29    38 ar  
    44    30    31 ar  
    45    30    49 1   
    46    31    32 1   
    47    31    36 ar  
    48    32    33 1   
    49    32    34 1   
    50    32    35 1   
    51    36    37 ar  
    52    36    50 1   
    53    37    38 ar  
    54    37    51 1   
    55    38    52 1   
@<TRIPOS>SUBSTRUCTURE
     1 1D9         1 TEMP              0 ****  ****    0 ROOT
