@<TRIPOS>MOLECULE
1DA
   33    35     1     0     0
SMALL
No Charge or Current Charge


@<TRIPOS>ATOM
      1 O5          -1.2620     2.2120    -3.9450 oh         1 1DA      -0.701000
      2 C5          -1.1880     0.7890    -3.7370 c3         1 1DA       0.162600
      3 C4           0.0660     0.3990    -2.9060 c5         1 1DA       0.161300
      4 O4          -0.0850     0.8100    -1.5290 os         1 1DA      -0.428000
      5 C3           0.3200    -1.1340    -2.7720 c5         1 1DA       0.088300
      6 O3           0.8590    -1.7480    -3.9590 oh         1 1DA      -0.707000
      7 C2           1.3770    -1.1240    -1.6310 c5         1 1DA       0.102300
      8 O2           2.6630    -0.8590    -2.2100 oh         1 1DA      -0.700000
      9 C1           0.8440     0.0490    -0.7190 c5         1 1DA       0.320300
     10 N9           0.1620    -0.3270     0.5160 na         1 1DA      -0.319300
     11 C8          -0.6600    -1.4420     0.6950 cc         1 1DA       0.420700
     12 N7          -1.1020    -1.5330     1.9630 nd         1 1DA      -0.575100
     13 C7          -0.5140    -0.4210     2.5810 ca         1 1DA      -0.048600
     14 C6          -0.6160    -0.0070     3.9210 ca         1 1DA       0.416000
     15 N6          -1.3680    -0.6960     4.8330 nv         1 1DA      -1.083000
     16 C11          0.0830     1.1370     4.3080 ca         1 1DA      -0.293000
     17 C10          0.8490     1.8190     3.3490 ca         1 1DA       0.396900
     18 N3           0.9440     1.4180     2.0590 nb         1 1DA      -0.707000
     19 C9           0.2570     0.3130     1.7120 ca         1 1DA       0.373500
     20 HO5         -2.1070     2.3910    -4.4200 ho         1 1DA       0.506000
     21 H5'1        -1.1390     0.2750    -4.7060 h1         1 1DA       0.025700
     22 H5'2        -2.0860     0.4280    -3.2160 h1         1 1DA       0.025700
     23 H4           0.9430     0.9030    -3.3360 h1         1 1DA       0.094700
     24 H3          -0.5960    -1.6500    -2.4480 h1         1 1DA       0.054700
     25 HO3          0.1010    -2.0750    -4.5020 ho         1 1DA       0.517000
     26 H2           1.3930    -2.0820    -1.0920 h1         1 1DA       0.078700
     27 HO2          2.5560    -1.1990    -3.1360 ho         1 1DA       0.523000
     28 H1           1.6880     0.6850    -0.4210 h2         1 1DA       0.126700
     29 H8          -0.8960    -2.1280    -0.1100 h5         1 1DA       0.069800
     30 HN61        -1.2060    -0.5410     5.8250 hn         1 1DA       0.481500
     31 HN62        -1.7120    -1.6140     4.5570 hn         1 1DA       0.481500
     32 H7           0.0410     1.5020     5.3280 ha         1 1DA       0.120000
     33 H6           1.4070     2.7150     3.6210 h4         1 1DA       0.016100
@<TRIPOS>BOND
     1     1     2 1   
     2     1    20 1   
     3     2     3 1   
     4     2    21 1   
     5     2    22 1   
     6     3     4 1   
     7     3     5 1   
     8     3    23 1   
     9     4     9 1   
    10     5     6 1   
    11     5     7 1   
    12     5    24 1   
    13     6    25 1   
    14     7     8 1   
    15     7     9 1   
    16     7    26 1   
    17     8    27 1   
    18     9    10 1   
    19     9    28 1   
    20    10    11 1   
    21    10    19 1   
    22    11    12 2   
    23    11    29 1   
    24    12    13 1   
    25    13    14 ar  
    26    13    19 ar  
    27    14    15 1   
    28    14    16 ar  
    29    15    30 1   
    30    15    31 1   
    31    16    17 ar  
    32    16    32 1   
    33    17    18 ar  
    34    17    33 1   
    35    18    19 ar  
@<TRIPOS>SUBSTRUCTURE
     1 1DA         1 TEMP              0 ****  ****    0 ROOT
