@<TRIPOS>MOLECULE
1DA
   33    35     1     0     0
SMALL
bcc


@<TRIPOS>ATOM
      1 O5          -1.9840     0.9390    -4.1850 oh         1 1DA      -0.578800
      2 C5          -1.3750    -0.1740    -3.5790 c3         1 1DA       0.139400
      3 C4          -0.0410     0.2400    -3.0110 c5         1 1DA       0.138100
      4 O4          -0.2090     1.1960    -1.9640 os         1 1DA      -0.381600
      5 C3           0.7200    -0.9170    -2.3690 c5         1 1DA       0.065100
      6 O3           1.4580    -1.6080    -3.3370 oh         1 1DA      -0.584800
      7 C2           1.5820    -0.1870    -1.3340 c5         1 1DA       0.079100
      8 O2           2.6790     0.4360    -1.9450 oh         1 1DA      -0.577800
      9 C1           0.6220     0.9110    -0.8790 c5         1 1DA       0.267800
     10 N9          -0.1920     0.4790     0.2510 na         1 1DA      -0.290000
     11 C8          -1.4960     0.0810     0.2680 cc         1 1DA       0.420700
     12 N7          -1.9220    -0.2430     1.4550 nd         1 1DA      -0.575100
     13 C7          -0.8420    -0.0480     2.2780 ca         1 1DA      -0.113900
     14 C6          -0.6960    -0.2300     3.6620 ca         1 1DA       0.277600
     15 N6          -1.7200    -0.6370     4.4430 nv         1 1DA      -0.834200
     16 C11          0.5800     0.0840     4.1550 ca         1 1DA      -0.376300
     17 C10          1.5850     0.5350     3.3030 ca         1 1DA       0.462200
     18 N3           1.4650     0.7090     1.9890 nb         1 1DA      -0.707000
     19 C9           0.2530     0.4080     1.5450 ca         1 1DA       0.438800
     20 HO5         -2.8270     0.6570    -4.5500 ho         1 1DA       0.407000
     21 H5'1        -1.1880    -0.9830    -4.2960 h1         1 1DA       0.025700
     22 H5'2        -1.9960    -0.5980    -2.7780 h1         1 1DA       0.025700
     23 H4           0.5690     0.6830    -3.8080 h1         1 1DA       0.094700
     24 H3           0.0190    -1.5840    -1.8480 h1         1 1DA       0.054700
     25 HO3          1.6970    -2.4730    -2.9870 ho         1 1DA       0.418000
     26 H2           1.8890    -0.8340    -0.5050 h1         1 1DA       0.078700
     27 HO2          3.0180    -0.1600    -2.6240 ho         1 1DA       0.424000
     28 H1           1.1620     1.8060    -0.5610 h2         1 1DA       0.126700
     29 H8          -2.1020     0.0600    -0.6240 h5         1 1DA       0.069800
     30 HN61        -1.5190    -0.9710     5.3700 hn         1 1DA       0.426300
     31 HN62        -2.5210    -1.0560     4.0020 hn         1 1DA       0.426300
     32 H7           0.7940    -0.0230     5.2110 ha         1 1DA       0.138000
     33 H6           2.5550     0.7660     3.7270 h4         1 1DA       0.016100
@<TRIPOS>BOND
     1     1     2 1   
     2     1    20 1   
     3     2     3 1   
     4     2    21 1   
     5     2    22 1   
     6     3     4 1   
     7     3     5 1   
     8     3    23 1   
     9     4     9 1   
    10     5     6 1   
    11     5     7 1   
    12     5    24 1   
    13     6    25 1   
    14     7     8 1   
    15     7     9 1   
    16     7    26 1   
    17     8    27 1   
    18     9    10 1   
    19     9    28 1   
    20    10    11 1   
    21    10    19 1   
    22    11    12 2   
    23    11    29 1   
    24    12    13 1   
    25    13    14 ar  
    26    13    19 ar  
    27    14    15 1   
    28    14    16 ar  
    29    15    30 1   
    30    15    31 1   
    31    16    17 ar  
    32    16    32 1   
    33    17    18 ar  
    34    17    33 1   
    35    18    19 ar  
@<TRIPOS>SUBSTRUCTURE
     1 1DA         1 TEMP              0 ****  ****    0 ROOT
