@<TRIPOS>MOLECULE
1DB
   35    34     1     0     0
SMALL
No Charge or Current Charge


@<TRIPOS>ATOM
      1 O3          -4.6140     0.9040    -1.2390 o          1 1DB      -0.699200
      2 S           -4.6580     0.1190     0.0030 s6         1 1DB       1.321600
      3 O1          -5.6620    -0.9550     0.0080 o          1 1DB      -0.699200
      4 O2          -4.6170     0.9200     1.2360 o          1 1DB      -0.699200
      5 C1          -3.0820    -0.7780     0.0110 c3         1 1DB      -0.356400
      6 C2          -1.8350     0.1400     0.0070 c3         1 1DB      -0.031400
      7 C3          -0.5140    -0.6600     0.0140 c3         1 1DB      -0.072400
      8 C4           0.7400     0.2420     0.0100 c3         1 1DB      -0.076400
      9 C5           2.0600    -0.5600     0.0160 c3         1 1DB      -0.074400
     10 C6           3.3150     0.3420     0.0130 c3         1 1DB      -0.075400
     11 C7           4.6350    -0.4600     0.0190 c3         1 1DB      -0.074400
     12 C8           5.8890     0.4420     0.0150 c3         1 1DB      -0.076400
     13 C9           7.2090    -0.3600     0.0210 c3         1 1DB      -0.075400
     14 C10          8.4610     0.5390     0.0180 c3         1 1DB      -0.088100
     15 H1C1        -3.0870    -1.4180    -0.8780 h1         1 1DB       0.061700
     16 H1C2        -3.0890    -1.4070     0.9070 h1         1 1DB       0.061700
     17 H2C1        -1.8590     0.7970     0.8850 hc         1 1DB       0.046700
     18 H2C2        -1.8570     0.7870    -0.8790 hc         1 1DB       0.046700
     19 H3C1        -0.4880    -1.3170    -0.8640 hc         1 1DB       0.027700
     20 H3C2        -0.4900    -1.3060     0.9000 hc         1 1DB       0.027700
     21 H4C1         0.7140     0.8990     0.8880 hc         1 1DB       0.035700
     22 H4C2         0.7160     0.8890    -0.8760 hc         1 1DB       0.035700
     23 H5C1         2.0870    -1.2170    -0.8620 hc         1 1DB       0.032700
     24 H5C2         2.0850    -1.2070     0.9020 hc         1 1DB       0.032700
     25 H6C1         3.2880     0.9990     0.8910 hc         1 1DB       0.035700
     26 H6C2         3.2900     0.9890    -0.8730 hc         1 1DB       0.035700
     27 H7C1         4.6610    -1.1170    -0.8590 hc         1 1DB       0.034700
     28 H7C2         4.6590    -1.1070     0.9050 hc         1 1DB       0.034700
     29 H8C1         5.8630     1.0990     0.8930 hc         1 1DB       0.035700
     30 H8C2         5.8650     1.0890    -0.8710 hc         1 1DB       0.035700
     31 H9C1         7.2400    -1.0170    -0.8570 hc         1 1DB       0.035200
     32 H9C2         7.2380    -1.0070     0.9070 hc         1 1DB       0.035200
     33 H101         8.4770     1.1850     0.9040 hc         1 1DB       0.028033
     34 H102         9.3710    -0.0730     0.0220 hc         1 1DB       0.028033
     35 H103         8.4790     1.1750    -0.8760 hc         1 1DB       0.028033
@<TRIPOS>BOND
     1     1     2 1   
     2     2     3 1   
     3     2     4 1   
     4     2     5 1   
     5     5     6 1   
     6     5    15 1   
     7     5    16 1   
     8     6     7 1   
     9     6    17 1   
    10     6    18 1   
    11     7     8 1   
    12     7    19 1   
    13     7    20 1   
    14     8     9 1   
    15     8    21 1   
    16     8    22 1   
    17     9    10 1   
    18     9    23 1   
    19     9    24 1   
    20    10    11 1   
    21    10    25 1   
    22    10    26 1   
    23    11    12 1   
    24    11    27 1   
    25    11    28 1   
    26    12    13 1   
    27    12    29 1   
    28    12    30 1   
    29    13    14 1   
    30    13    31 1   
    31    13    32 1   
    32    14    33 1   
    33    14    34 1   
    34    14    35 1   
@<TRIPOS>SUBSTRUCTURE
     1 1DB         1 TEMP              0 ****  ****    0 ROOT
