@<TRIPOS>MOLECULE
1DB
   35    34     1     0     0
SMALL
bcc


@<TRIPOS>ATOM
      1 O3          -4.5460     0.8920    -1.2850 o          1 1DB      -0.699200
      2 S           -4.5620     0.1160    -0.0270 s6         1 1DB       1.210800
      3 O1          -5.6090    -0.9260    -0.0060 o          1 1DB      -0.699200
      4 O2          -4.5770     0.9730     1.1770 o          1 1DB      -0.699200
      5 C1          -2.9990    -0.7760     0.0200 c3         1 1DB      -0.245600
      6 C2          -1.7830     0.1360     0.0130 c3         1 1DB      -0.031400
      7 C3          -0.4800    -0.6550     0.0280 c3         1 1DB      -0.072400
      8 C4           0.7560     0.2370     0.0260 c3         1 1DB      -0.076400
      9 C5           2.0590    -0.5520     0.0280 c3         1 1DB      -0.074400
     10 C6           3.3000     0.3330     0.0270 c3         1 1DB      -0.075400
     11 C7           4.6020    -0.4580     0.0190 c3         1 1DB      -0.074400
     12 C8           5.8430     0.4260     0.0220 c3         1 1DB      -0.076400
     13 C9           7.1470    -0.3620     0.0010 c3         1 1DB      -0.075400
     14 C10          8.3770     0.5350     0.0060 c3         1 1DB      -0.088100
     15 H1C1        -2.9880    -1.4460    -0.8440 h1         1 1DB       0.061700
     16 H1C2        -3.0130    -1.3990     0.9180 h1         1 1DB       0.061700
     17 H2C1        -1.8190     0.7990     0.8810 hc         1 1DB       0.046700
     18 H2C2        -1.8110     0.7750    -0.8740 hc         1 1DB       0.046700
     19 H3C1        -0.4480    -1.3210    -0.8410 hc         1 1DB       0.027700
     20 H3C2        -0.4570    -1.3050     0.9100 hc         1 1DB       0.027700
     21 H4C1         0.7280     0.8970     0.9000 hc         1 1DB       0.035700
     22 H4C2         0.7290     0.8920    -0.8510 hc         1 1DB       0.035700
     23 H5C1         2.0850    -1.2120    -0.8470 hc         1 1DB       0.032700
     24 H5C2         2.0850    -1.2100     0.9030 hc         1 1DB       0.032700
     25 H6C1         3.2780     0.9890     0.9050 hc         1 1DB       0.035700
     26 H6C2         3.2720     0.9960    -0.8460 hc         1 1DB       0.035700
     27 H7C1         4.6240    -1.1110    -0.8600 hc         1 1DB       0.034700
     28 H7C2         4.6290    -1.1220     0.8900 hc         1 1DB       0.034700
     29 H8C1         5.8260     1.0730     0.9070 hc         1 1DB       0.035700
     30 H8C2         5.8130     1.0980    -0.8440 hc         1 1DB       0.035700
     31 H9C1         7.1660    -1.0070    -0.8830 hc         1 1DB       0.035200
     32 H9C2         7.1780    -1.0330     0.8660 hc         1 1DB       0.035200
     33 H101         8.3980     1.1690     0.8950 hc         1 1DB       0.028033
     34 H102         9.3010    -0.0440    -0.0070 hc         1 1DB       0.028033
     35 H103         8.3870     1.1920    -0.8660 hc         1 1DB       0.028033
@<TRIPOS>BOND
     1     1     2 1   
     2     2     3 1   
     3     2     4 1   
     4     2     5 1   
     5     5     6 1   
     6     5    15 1   
     7     5    16 1   
     8     6     7 1   
     9     6    17 1   
    10     6    18 1   
    11     7     8 1   
    12     7    19 1   
    13     7    20 1   
    14     8     9 1   
    15     8    21 1   
    16     8    22 1   
    17     9    10 1   
    18     9    23 1   
    19     9    24 1   
    20    10    11 1   
    21    10    25 1   
    22    10    26 1   
    23    11    12 1   
    24    11    27 1   
    25    11    28 1   
    26    12    13 1   
    27    12    29 1   
    28    12    30 1   
    29    13    14 1   
    30    13    31 1   
    31    13    32 1   
    32    14    33 1   
    33    14    34 1   
    34    14    35 1   
@<TRIPOS>SUBSTRUCTURE
     1 1DB         1 TEMP              0 ****  ****    0 ROOT
