@<TRIPOS>MOLECULE
1DC
   42    44     1     0     0
SMALL
No Charge or Current Charge


@<TRIPOS>ATOM
      1 CAH          4.8250     1.1230    -0.7520 ca         1 1DC      -0.152500
      2 CAF          5.7230     2.1630    -0.4550 ca         1 1DC       0.336400
      3 NAN          6.6140     2.1010     0.5610 nb         1 1DC      -0.663000
      4 CAG          6.6270     0.9780     1.3160 ca         1 1DC       0.336400
      5 CAI          5.7650    -0.1090     1.0880 ca         1 1DC      -0.152500
      6 CAS          4.8400    -0.0500     0.0290 ca         1 1DC      -0.052300
      7 CAX          3.8850    -1.2100    -0.2430 c3         1 1DC       0.162000
      8 CAA          4.0050    -1.7430    -1.6860 c3         1 1DC      -0.106100
      9 NAP          2.5120    -0.8120     0.0600 ns         1 1DC      -0.510900
     10 CAR          1.4840    -1.6810     0.3420 c          1 1DC       0.595100
     11 OAB          1.6450    -2.8920     0.4000 o          1 1DC      -0.598100
     12 CAL          0.1300    -1.0210     0.6150 c3         1 1DC      -0.147400
     13 CAM         -0.8560    -1.2290    -0.5670 c3         1 1DC      -0.110700
     14 CAT         -2.1970    -0.5780    -0.3540 cc         1 1DC       0.505900
     15 NAO         -2.4610     0.6270    -0.8550 nd         1 1DC      -0.641100
     16 CAV         -3.7500     1.1090    -0.5610 ca         1 1DC       0.188400
     17 CAJ         -4.0990     2.3770    -1.0600 ca         1 1DC      -0.107000
     18 CAD         -5.3680     2.9290    -0.8110 ca         1 1DC      -0.074000
     19 CAE         -6.3050     2.2110    -0.0530 ca         1 1DC      -0.133000
     20 CAK         -5.9720     0.9440     0.4530 ca         1 1DC      -0.039000
     21 CAW         -4.6970     0.3940     0.2000 ca         1 1DC      -0.203600
     22 CAU         -4.3220    -0.9410     0.7240 c          1 1DC       0.578600
     23 OAC         -5.0580    -1.6470     1.3950 o          1 1DC      -0.535000
     24 NAQ         -3.0690    -1.3240     0.3940 ns         1 1DC      -0.431400
     25 H1           4.1310     1.2370    -1.5800 ha         1 1DC       0.120500
     26 H2           5.7270     3.0770    -1.0490 h4         1 1DC       0.018100
     27 H3           7.3500     0.9500     2.1300 h4         1 1DC       0.018100
     28 H4           5.8230    -0.9820     1.7320 ha         1 1DC       0.120500
     29 H5           4.1520    -2.0330     0.4350 h1         1 1DC       0.073700
     30 H6           5.0430    -2.0180    -1.9050 hc         1 1DC       0.047367
     31 H7           3.3820    -2.6340    -1.8240 hc         1 1DC       0.047367
     32 H8           3.6870    -0.9880    -2.4150 hc         1 1DC       0.047367
     33 H9           2.2880     0.1760     0.0550 hn         1 1DC       0.317500
     34 H10         -0.3010    -1.4720     1.5170 hc         1 1DC       0.075700
     35 H11          0.2630     0.0570     0.7690 hc         1 1DC       0.075700
     36 H12         -0.4040    -0.8270    -1.4820 hc         1 1DC       0.077700
     37 H13         -0.9900    -2.3030    -0.7480 hc         1 1DC       0.077700
     38 H14         -3.3790     2.9390    -1.6480 ha         1 1DC       0.130000
     39 H15         -5.6220     3.9110    -1.2040 ha         1 1DC       0.117000
     40 H16         -7.2880     2.6350     0.1430 ha         1 1DC       0.120000
     41 H17         -6.7050     0.3930     1.0410 ha         1 1DC       0.136000
     42 H18         -2.7770    -2.2270     0.7360 hn         1 1DC       0.331500
@<TRIPOS>BOND
     1     1     2 ar  
     2     1     6 ar  
     3     1    25 1   
     4     2     3 ar  
     5     2    26 1   
     6     3     4 ar  
     7     4     5 ar  
     8     4    27 1   
     9     5     6 ar  
    10     5    28 1   
    11     6     7 1   
    12     7     8 1   
    13     7     9 1   
    14     7    29 1   
    15     8    30 1   
    16     8    31 1   
    17     8    32 1   
    18     9    10 1   
    19     9    33 1   
    20    10    11 2   
    21    10    12 1   
    22    12    13 1   
    23    12    34 1   
    24    12    35 1   
    25    13    14 1   
    26    13    36 1   
    27    13    37 1   
    28    14    15 2   
    29    14    24 1   
    30    15    16 1   
    31    16    17 ar  
    32    16    21 ar  
    33    17    18 ar  
    34    17    38 1   
    35    18    19 ar  
    36    18    39 1   
    37    19    20 ar  
    38    19    40 1   
    39    20    21 ar  
    40    20    41 1   
    41    21    22 1   
    42    22    23 2   
    43    22    24 1   
    44    24    42 1   
@<TRIPOS>SUBSTRUCTURE
     1 1DC         1 TEMP              0 ****  ****    0 ROOT
