@<TRIPOS>MOLECULE
1DC
   42    44     1     0     0
SMALL
bcc


@<TRIPOS>ATOM
      1 CAH          4.4050     1.0740     0.0780 ca         1 1DC      -0.235800
      2 CAF          5.2020     1.8090     0.9430 ca         1 1DC       0.401700
      3 NAN          6.2080     1.2920     1.6380 nb         1 1DC      -0.663000
      4 CAG          6.4500    -0.0050     1.4820 ca         1 1DC       0.401700
      5 CAI          5.7110    -0.8250     0.6430 ca         1 1DC      -0.235800
      6 CAS          4.6580    -0.2830    -0.0810 ca         1 1DC      -0.052300
      7 CAX          3.8770    -1.1380    -1.0530 c3         1 1DC       0.162000
      8 CAA          4.4930    -1.0400    -2.4450 c3         1 1DC      -0.106100
      9 NAP          2.4830    -0.7600    -1.1200 ns         1 1DC      -0.577900
     10 CAR          1.6410    -0.9280    -0.0850 c          1 1DC       0.662100
     11 OAB          1.9960    -1.4380     0.9670 o          1 1DC      -0.598100
     12 CAL          0.2400    -0.4030    -0.3130 c3         1 1DC      -0.147400
     13 CAM         -0.7850    -1.1400     0.5290 c3         1 1DC      -0.110700
     14 CAT         -2.1620    -0.5650     0.4260 cc         1 1DC       0.505900
     15 NAO         -2.4050     0.4910    -0.2610 nd         1 1DC      -0.641100
     16 CAV         -3.6980     0.9620    -0.2870 ca         1 1DC       0.188400
     17 CAJ         -3.9790     2.1150    -1.0340 ca         1 1DC      -0.125000
     18 CAD         -5.2620     2.6160    -1.0780 ca         1 1DC      -0.092000
     19 CAE         -6.3010     1.9850    -0.3840 ca         1 1DC      -0.151000
     20 CAK         -6.0420     0.8510     0.3530 ca         1 1DC      -0.057000
     21 CAW         -4.7440     0.3330     0.4050 ca         1 1DC      -0.203600
     22 CAU         -4.4520    -0.8690     1.1770 c          1 1DC       0.721100
     23 OAC         -5.2630    -1.5120     1.8190 o          1 1DC      -0.610500
     24 NAQ         -3.1280    -1.2370     1.1200 ns         1 1DC      -0.498400
     25 H1           3.5990     1.5630    -0.4540 ha         1 1DC       0.138500
     26 H2           5.0130     2.8680     1.0790 h4         1 1DC       0.018100
     27 H3           7.2720    -0.4180     2.0550 h4         1 1DC       0.018100
     28 H4           5.9570    -1.8770     0.5660 ha         1 1DC       0.138500
     29 H5           3.9440    -2.1770    -0.7180 h1         1 1DC       0.073700
     30 H6           5.5370    -1.3460    -2.4170 hc         1 1DC       0.047367
     31 H7           3.9690    -1.6910    -3.1460 hc         1 1DC       0.047367
     32 H8           4.4510    -0.0170    -2.8210 hc         1 1DC       0.047367
     33 H9           2.1390    -0.3430    -1.9700 hn         1 1DC       0.317500
     34 H10          0.2400     0.6610    -0.0570 hc         1 1DC       0.075700
     35 H11         -0.0210    -0.4570    -1.3710 hc         1 1DC       0.075700
     36 H12         -0.8280    -2.1950     0.2420 hc         1 1DC       0.077700
     37 H13         -0.4890    -1.1280     1.5820 hc         1 1DC       0.077700
     38 H14         -3.1730     2.5980    -1.5700 ha         1 1DC       0.148000
     39 H15         -5.4680     3.5070    -1.6560 ha         1 1DC       0.135000
     40 H16         -7.3030     2.3890    -0.4270 ha         1 1DC       0.138000
     41 H17         -6.8370     0.3560     0.8950 ha         1 1DC       0.154000
     42 H18         -2.8650    -2.0700     1.6320 hn         1 1DC       0.331500
@<TRIPOS>BOND
     1     1     2 ar  
     2     1     6 ar  
     3     1    25 1   
     4     2     3 ar  
     5     2    26 1   
     6     3     4 ar  
     7     4     5 ar  
     8     4    27 1   
     9     5     6 ar  
    10     5    28 1   
    11     6     7 1   
    12     7     8 1   
    13     7     9 1   
    14     7    29 1   
    15     8    30 1   
    16     8    31 1   
    17     8    32 1   
    18     9    10 1   
    19     9    33 1   
    20    10    11 2   
    21    10    12 1   
    22    12    13 1   
    23    12    34 1   
    24    12    35 1   
    25    13    14 1   
    26    13    36 1   
    27    13    37 1   
    28    14    15 2   
    29    14    24 1   
    30    15    16 1   
    31    16    17 ar  
    32    16    21 ar  
    33    17    18 ar  
    34    17    38 1   
    35    18    19 ar  
    36    18    39 1   
    37    19    20 ar  
    38    19    40 1   
    39    20    21 ar  
    40    20    41 1   
    41    21    22 1   
    42    22    23 2   
    43    22    24 1   
    44    24    42 1   
@<TRIPOS>SUBSTRUCTURE
     1 1DC         1 TEMP              0 ****  ****    0 ROOT
