@<TRIPOS>MOLECULE
1DD
   31    33     1     0     0
SMALL
abcg2


@<TRIPOS>ATOM
      1 F20          4.5130     1.8290    -1.2860 f          1 1DD      -0.163000
      2 C17          3.5250     1.1550    -0.6990 ca         1 1DD       0.238000
      3 C16          3.3450    -0.1780    -1.0240 ca         1 1DD      -0.175000
      4 C15          2.3240    -0.8790    -0.4100 ca         1 1DD       0.021000
      5 C18          2.7240     1.8130     0.2180 ca         1 1DD      -0.175000
      6 C19          1.7020     1.1100     0.8320 ca         1 1DD       0.021000
      7 C14          1.5070    -0.2280     0.5070 ca         1 1DD      -0.326500
      8 S10          0.1960    -1.1200     1.2700 sy         1 1DD       1.195700
      9 O11          0.4940    -2.5320     1.2440 o          1 1DD      -0.521000
     10 O12         -0.1740    -0.4650     2.5030 o          1 1DD      -0.521000
     11 N9          -1.1080    -0.8790     0.2110 na         1 1DD      -0.301800
     12 C8          -1.4620    -1.6470    -0.9040 cc         1 1DD       0.461800
     13 C13         -0.8920    -2.9730    -1.2490 c3         1 1DD      -0.116400
     14 N7          -2.3790    -1.0670    -1.6040 nd         1 1DD      -0.564100
     15 C2          -2.6590     0.1330    -0.9880 ca         1 1DD       0.084400
     16 C3          -1.8750     0.2890     0.1590 ca         1 1DD      -0.059200
     17 C4          -1.9690     1.4170     0.9640 ca         1 1DD      -0.108000
     18 C5          -2.8730     2.3920     0.5690 ca         1 1DD      -0.094000
     19 C6          -3.6640     2.2460    -0.5760 ca         1 1DD      -0.124000
     20 C1          -3.5700     1.1140    -1.3650 ca         1 1DD      -0.052000
     21 H1           3.9970    -0.6640    -1.7360 ha         1 1DD       0.142000
     22 H2           2.1860    -1.9240    -0.6480 ha         1 1DD       0.140500
     23 H3           2.9000     2.8520     0.4570 ha         1 1DD       0.142000
     24 H4           1.0830     1.6120     1.5610 ha         1 1DD       0.140500
     25 H5          -1.0740    -3.7090    -0.4690 hc         1 1DD       0.069700
     26 H6          -1.3740    -3.3080    -2.1630 hc         1 1DD       0.069700
     27 H7           0.1820    -2.9330    -1.4280 hc         1 1DD       0.069700
     28 H8          -1.3910     1.5480     1.8650 ha         1 1DD       0.139000
     29 H9          -2.9700     3.2850     1.1710 ha         1 1DD       0.117000
     30 H10         -4.3590     3.0300    -0.8430 ha         1 1DD       0.118000
     31 H11         -4.1790     0.9890    -2.2500 ha         1 1DD       0.132000
@<TRIPOS>BOND
     1     1     2 1   
     2     2     3 ar  
     3     2     5 ar  
     4     3     4 ar  
     5     3    21 1   
     6     4     7 ar  
     7     4    22 1   
     8     5     6 ar  
     9     5    23 1   
    10     6     7 ar  
    11     6    24 1   
    12     7     8 1   
    13     8     9 2   
    14     8    10 2   
    15     8    11 1   
    16    11    12 1   
    17    11    16 1   
    18    12    13 1   
    19    12    14 2   
    20    13    25 1   
    21    13    26 1   
    22    13    27 1   
    23    14    15 1   
    24    15    16 ar  
    25    15    20 ar  
    26    16    17 ar  
    27    17    18 ar  
    28    17    28 1   
    29    18    19 ar  
    30    18    29 1   
    31    19    20 ar  
    32    19    30 1   
    33    20    31 1   
@<TRIPOS>SUBSTRUCTURE
     1 1DD         1 TEMP              0 ****  ****    0 ROOT
