@<TRIPOS>MOLECULE
1DD
   31    33     1     0     0
SMALL
No Charge or Current Charge


@<TRIPOS>ATOM
      1 F20          4.9140     1.2950    -1.4370 f          1 1DD      -0.163000
      2 C17          3.8390     0.7650    -0.8140 ca         1 1DD       0.238000
      3 C16          3.7870    -0.6140    -0.5680 ca         1 1DD      -0.175000
      4 C15          2.6710    -1.1720     0.0790 ca         1 1DD       0.021000
      5 C18          2.7830     1.5980    -0.4180 ca         1 1DD      -0.175000
      6 C19          1.6630     1.0510     0.2300 ca         1 1DD       0.021000
      7 C14          1.6040    -0.3370     0.4780 ca         1 1DD      -0.326500
      8 S10          0.1530    -1.0230     1.3000 sy         1 1DD       1.195700
      9 O11          0.2960    -2.4850     1.3120 o          1 1DD      -0.521000
     10 O12         -0.0870    -0.2470     2.5230 o          1 1DD      -0.521000
     11 N9          -1.1460    -0.6420     0.1950 na         1 1DD      -0.301800
     12 C8          -1.3840    -1.3430    -0.9950 cc         1 1DD       0.461800
     13 C13         -0.5970    -2.5120    -1.5250 c3         1 1DD      -0.116400
     14 N7          -2.4190    -0.8200    -1.6790 nd         1 1DD      -0.564100
     15 C2          -2.8290     0.2550    -0.9080 ca         1 1DD       0.084400
     16 C3          -2.0670     0.3840     0.2190 ca         1 1DD      -0.059200
     17 C4          -2.2860     1.4230     1.1440 ca         1 1DD      -0.108000
     18 C5          -3.3300     2.3340     0.8820 ca         1 1DD      -0.094000
     19 C6          -4.1230     2.1970    -0.2800 ca         1 1DD      -0.124000
     20 C1          -3.8720     1.1480    -1.1900 ca         1 1DD      -0.052000
     21 H1           4.6110    -1.2500    -0.8790 ha         1 1DD       0.142000
     22 H2           2.6450    -2.2450     0.2640 ha         1 1DD       0.140500
     23 H3           2.8340     2.6650    -0.6130 ha         1 1DD       0.142000
     24 H4           0.8460     1.7050     0.5330 ha         1 1DD       0.140500
     25 H5          -0.7760    -3.4100    -0.9240 hc         1 1DD       0.069700
     26 H6          -0.8920    -2.7420    -2.5550 hc         1 1DD       0.069700
     27 H7           0.4770    -2.2990    -1.5340 hc         1 1DD       0.069700
     28 H8          -1.6840     1.5420     2.0390 ha         1 1DD       0.139000
     29 H9          -3.5260     3.1470     1.5780 ha         1 1DD       0.117000
     30 H10         -4.9260     2.9040    -0.4770 ha         1 1DD       0.118000
     31 H11         -4.4710     1.0350    -2.0900 ha         1 1DD       0.132000
@<TRIPOS>BOND
     1     1     2 1   
     2     2     3 ar  
     3     2     5 ar  
     4     3     4 ar  
     5     3    21 1   
     6     4     7 ar  
     7     4    22 1   
     8     5     6 ar  
     9     5    23 1   
    10     6     7 ar  
    11     6    24 1   
    12     7     8 1   
    13     8     9 2   
    14     8    10 2   
    15     8    11 1   
    16    11    12 1   
    17    11    16 1   
    18    12    13 1   
    19    12    14 2   
    20    13    25 1   
    21    13    26 1   
    22    13    27 1   
    23    14    15 1   
    24    15    16 ar  
    25    15    20 ar  
    26    16    17 ar  
    27    17    18 ar  
    28    17    28 1   
    29    18    19 ar  
    30    18    29 1   
    31    19    20 ar  
    32    19    30 1   
    33    20    31 1   
@<TRIPOS>SUBSTRUCTURE
     1 1DD         1 TEMP              0 ****  ****    0 ROOT
