@<TRIPOS>MOLECULE
1DE
   46    50     1     0     0
SMALL
No Charge or Current Charge


@<TRIPOS>ATOM
      1 CAO          0.5680    -0.9590     1.1490 ca         1 1DE      -0.073000
      2 CBD          0.5020    -2.3430     1.3450 ca         1 1DE       0.055100
      3 OAQ          0.7200    -2.9880     2.5190 os         1 1DE      -0.346100
      4 CAP          0.6320    -4.4040     2.1310 c5         1 1DE       0.373600
      5 OAR          0.1700    -4.4980     0.7370 os         1 1DE      -0.331100
      6 CBF          0.1900    -3.2000     0.3290 ca         1 1DE       0.060100
      7 CAZ         -0.0860    -2.7270    -0.9620 ca         1 1DE       0.129000
      8 Cl2         -0.4950    -3.8320    -2.2720 cl         1 1DE      -0.169000
      9 CAM         -0.0210    -1.3380    -1.1930 ca         1 1DE      -0.062000
     10 CBB          0.3120    -0.4410    -0.1430 ca         1 1DE      -0.085300
     11 CBG          0.4270     1.0630    -0.4020 c5         1 1DE       0.223200
     12 CAX          1.1090     1.4370    -1.7330 ce         1 1DE      -0.312400
     13 CAU          2.5030     0.9590    -2.0260 c          1 1DE       0.641900
     14 OAB          2.9430     0.9980    -3.1660 o          1 1DE      -0.512100
     15 CBE          3.2580     0.2660    -0.9620 cc         1 1DE      -0.285600
     16 CAL          3.5660    -1.0740    -1.0310 cd         1 1DE      -0.074000
     17 CAK          4.0340    -1.6080     0.2010 cd         1 1DE      -0.132000
     18 CAY          4.0530    -0.6840     1.2120 cc         1 1DE      -0.035000
     19 Cl1          4.5190    -0.9920     2.8550 cl         1 1DE      -0.147000
     20 SAS          3.5130     0.8990     0.6640 ss         1 1DE       0.279000
     21 CAV          0.2070     2.0830    -2.5080 cf         1 1DE       0.112900
     22 OAE          0.4270     2.5390    -3.7610 oh         1 1DE      -0.476100
     23 CAW         -1.0980     2.2040    -1.8180 c          1 1DE       0.519200
     24 OAC         -2.0920     2.7680    -2.2630 o          1 1DE      -0.517000
     25 NBH         -0.9710     1.5610    -0.5780 n          1 1DE      -0.197400
     26 CBC         -1.9970     1.4260     0.4320 ca         1 1DE      -0.091000
     27 CAN         -3.3650     1.3730     0.0810 ca         1 1DE      -0.071000
     28 CAJ         -1.6610     1.6300     1.7860 ca         1 1DE      -0.149000
     29 CAH         -2.6560     1.6490     2.7740 ca         1 1DE      -0.135000
     30 CAI         -4.0070     1.5180     2.4210 ca         1 1DE      -0.082000
     31 CBA         -4.3820     1.3890     1.0650 ca         1 1DE      -0.122600
     32 CAT         -5.8470     1.2780     0.6720 c          1 1DE       0.713600
     33 OAD         -6.1280     1.1200    -0.5080 o          1 1DE      -0.712500
     34 OAA         -6.6960     1.3480     1.5510 o          1 1DE      -0.712500
     35 H1           0.8220    -0.3050     1.9800 ha         1 1DE       0.135000
     36 H2           1.6280    -4.8560     2.2060 h2         1 1DE       0.063700
     37 H3          -0.0700    -4.9270     2.7910 h2         1 1DE       0.063700
     38 H4          -0.2250    -0.9610    -2.1920 ha         1 1DE       0.144000
     39 H5           0.8930     1.5830     0.4430 h1         1 1DE       0.073700
     40 H6           3.4240    -1.6780    -1.9240 ha         1 1DE       0.150000
     41 H7           4.3140    -2.6480     0.3370 ha         1 1DE       0.144000
     42 H8          -0.4070     2.9550    -4.0720 ho         1 1DE       0.496000
     43 H9          -3.6460     1.2790    -0.9650 ha         1 1DE       0.144000
     44 H10         -0.6270     1.7720     2.0860 ha         1 1DE       0.086000
     45 H11         -2.3800     1.7810     3.8180 ha         1 1DE       0.091000
     46 H12         -4.7630     1.5370     3.2040 ha         1 1DE       0.132000
@<TRIPOS>BOND
     1     1     2 ar  
     2     1    10 ar  
     3     1    35 1   
     4     2     3 1   
     5     2     6 ar  
     6     3     4 1   
     7     4     5 1   
     8     4    36 1   
     9     4    37 1   
    10     5     6 1   
    11     6     7 ar  
    12     7     8 1   
    13     7     9 ar  
    14     9    10 ar  
    15     9    38 1   
    16    10    11 1   
    17    11    12 1   
    18    11    25 1   
    19    11    39 1   
    20    12    13 1   
    21    12    21 2   
    22    13    14 2   
    23    13    15 1   
    24    15    16 2   
    25    15    20 1   
    26    16    17 1   
    27    16    40 1   
    28    17    18 2   
    29    17    41 1   
    30    18    19 1   
    31    18    20 1   
    32    21    22 1   
    33    21    23 1   
    34    22    42 1   
    35    23    24 2   
    36    23    25 1   
    37    25    26 1   
    38    26    27 ar  
    39    26    28 ar  
    40    27    31 ar  
    41    27    43 1   
    42    28    29 ar  
    43    28    44 1   
    44    29    30 ar  
    45    29    45 1   
    46    30    31 ar  
    47    30    46 1   
    48    31    32 1   
    49    32    33 1   
    50    32    34 1   
@<TRIPOS>SUBSTRUCTURE
     1 1DE         1 TEMP              0 ****  ****    0 ROOT
