@<TRIPOS>MOLECULE
1DE
   46    50     1     0     0
SMALL
abcg2


@<TRIPOS>ATOM
      1 CAO          0.5080    -1.1360     1.1300 ca         1 1DE      -0.073000
      2 CBD          0.2920    -2.4830     1.2790 ca         1 1DE       0.055100
      3 OAQ          0.5960    -3.2780     2.3300 os         1 1DE      -0.346100
      4 CAP         -0.0010    -4.5400     2.0620 c5         1 1DE       0.373600
      5 OAR         -0.3690    -4.5370     0.6840 os         1 1DE      -0.331100
      6 CBF         -0.2920    -3.2520     0.2880 ca         1 1DE       0.060100
      7 CAZ         -0.6790    -2.6880    -0.9020 ca         1 1DE       0.129000
      8 CL2         -1.3980    -3.6610    -2.1270 cl         1 1DE      -0.169000
      9 CAM         -0.4650    -1.3220    -1.0860 ca         1 1DE      -0.062000
     10 CBB          0.1200    -0.5610    -0.0850 ca         1 1DE      -0.085300
     11 CBG          0.3270     0.9210    -0.3040 c5         1 1DE       0.223200
     12 CAX          1.0820     1.2380    -1.5720 ce         1 1DE      -0.312400
     13 CAU          2.3650     0.6540    -1.9670 c          1 1DE       0.641900
     14 OAB          2.6600     0.5270    -3.1410 o          1 1DE      -0.512100
     15 CBE          3.2980     0.1780    -0.9310 cc         1 1DE      -0.285600
     16 CAL          4.1790    -0.8580    -1.0820 cd         1 1DE      -0.074000
     17 CAK          4.9820    -1.0820     0.0580 cd         1 1DE      -0.132000
     18 CAY          4.7070    -0.1850     1.0460 cc         1 1DE      -0.035000
     19 CL1          5.4600    -0.0780     2.5690 cl         1 1DE      -0.147000
     20 SAS          3.4730     0.9210     0.6170 ss         1 1DE       0.279000
     21 CAV          0.3170     2.0330    -2.3410 cf         1 1DE       0.112900
     22 OAE          0.5690     2.5460    -3.5220 oh         1 1DE      -0.476100
     23 CAW         -0.9720     2.3180    -1.6510 c          1 1DE       0.519200
     24 OAC         -1.8480     3.0380    -2.0870 o          1 1DE      -0.517000
     25 NBH         -0.9340     1.6260    -0.4940 n          1 1DE      -0.197400
     26 CBC         -1.9710     1.5780     0.4620 ca         1 1DE      -0.091000
     27 CAN         -3.2660     1.2690     0.0670 ca         1 1DE      -0.071000
     28 CAJ         -1.6820     1.8170     1.8000 ca         1 1DE      -0.149000
     29 CAH         -2.7010     1.7400     2.7380 ca         1 1DE      -0.135000
     30 CAI         -3.9970     1.4460     2.3420 ca         1 1DE      -0.082000
     31 CBA         -4.2930     1.2100     1.0020 ca         1 1DE      -0.122600
     32 CAT         -5.7150     0.8750     0.5600 c          1 1DE       0.713600
     33 OAD         -5.8800     0.6460    -0.6530 o          1 1DE      -0.712500
     34 OAA         -6.5850     0.8620     1.4510 o          1 1DE      -0.712500
     35 H1           0.9650    -0.5470     1.9140 ha         1 1DE       0.135000
     36 H2           0.7180    -5.3370     2.2470 h2         1 1DE       0.063700
     37 H3          -0.8950    -4.6700     2.6810 h2         1 1DE       0.063700
     38 H4          -0.7650    -0.8650    -2.0200 ha         1 1DE       0.144000
     39 H5           0.8280     1.3410     0.5730 h1         1 1DE       0.073700
     40 H6           4.2340    -1.4560    -1.9800 ha         1 1DE       0.150000
     41 H7           5.7260    -1.8600     0.1420 ha         1 1DE       0.144000
     42 H8          -0.1610     3.1260    -3.7890 ho         1 1DE       0.496000
     43 H9          -3.4820     1.0550    -0.9700 ha         1 1DE       0.144000
     44 H10         -0.6760     2.0700     2.1110 ha         1 1DE       0.086000
     45 H11         -2.4780     1.9200     3.7820 ha         1 1DE       0.091000
     46 H12         -4.7870     1.3950     3.0790 ha         1 1DE       0.132000
@<TRIPOS>BOND
     1     1     2 ar  
     2     1    10 ar  
     3     1    35 1   
     4     2     3 1   
     5     2     6 ar  
     6     3     4 1   
     7     4     5 1   
     8     4    36 1   
     9     4    37 1   
    10     5     6 1   
    11     6     7 ar  
    12     7     8 1   
    13     7     9 ar  
    14     9    10 ar  
    15     9    38 1   
    16    10    11 1   
    17    11    12 1   
    18    11    25 1   
    19    11    39 1   
    20    12    13 1   
    21    12    21 2   
    22    13    14 2   
    23    13    15 1   
    24    15    16 2   
    25    15    20 1   
    26    16    17 1   
    27    16    40 1   
    28    17    18 2   
    29    17    41 1   
    30    18    19 1   
    31    18    20 1   
    32    21    22 1   
    33    21    23 1   
    34    22    42 1   
    35    23    24 2   
    36    23    25 1   
    37    25    26 1   
    38    26    27 ar  
    39    26    28 ar  
    40    27    31 ar  
    41    27    43 1   
    42    28    29 ar  
    43    28    44 1   
    44    29    30 ar  
    45    29    45 1   
    46    30    31 ar  
    47    30    46 1   
    48    31    32 1   
    49    32    33 1   
    50    32    34 1   
@<TRIPOS>SUBSTRUCTURE
     1 1DE         1 TEMP              0 ****  ****    0 ROOT
