@<TRIPOS>MOLECULE
1DF
   21    21     1     0     0
SMALL
bcc


@<TRIPOS>ATOM
      1 C1           1.2680     0.6090    -0.0190 ca         1 1DF      -0.156600
      2 CO1          0.0400     1.2200     0.0030 ca         1 1DF      -0.045000
      3 CO2          1.3330    -0.7920     0.0010 ca         1 1DF      -0.098000
      4 CM1         -1.1250     0.4460     0.0480 ca         1 1DF      -0.286200
      5 CM2          0.1950    -1.5670     0.0400 ca         1 1DF       0.038100
      6 OM           0.1650    -2.9100     0.0570 os         1 1DF      -0.312900
      7 CZ          -1.0800    -0.9550     0.0670 ca         1 1DF       0.178100
      8 CC           2.5480     1.4360    -0.0650 c          1 1DF       0.930200
      9 CV           1.3980    -3.5980    -0.0130 c3         1 1DF       0.126700
     10 O1           2.4060     2.6710    -0.1100 o          1 1DF      -0.814300
     11 O2           3.6170     0.7990    -0.0550 o          1 1DF      -0.814300
     12 O3          -2.1230    -1.7700     0.1080 oh         1 1DF      -0.488100
     13 N           -2.3900     1.1250     0.0730 no         1 1DF       0.326200
     14 O11         -3.4140     0.4540     0.1130 o          1 1DF      -0.249000
     15 O22         -2.4120     2.3300     0.0530 o          1 1DF      -0.249000
     16 H1          -0.0220     2.2980    -0.0130 ha         1 1DF       0.185000
     17 H2           2.3110    -1.2540    -0.0170 ha         1 1DF       0.165000
     18 H3           1.9450    -3.3590    -0.9280 h1         1 1DF       0.034700
     19 H4           2.0380    -3.3780     0.8460 h1         1 1DF       0.034700
     20 H5           1.1590    -4.6580    -0.0110 h1         1 1DF       0.034700
     21 H7          -2.9350    -1.2290     0.1230 ho         1 1DF       0.460000
@<TRIPOS>BOND
     1     1     2 ar  
     2     1     3 ar  
     3     1     8 1   
     4     2     4 ar  
     5     2    16 1   
     6     3     5 ar  
     7     3    17 1   
     8     4     7 ar  
     9     4    13 1   
    10     5     6 1   
    11     5     7 ar  
    12     6     9 1   
    13     7    12 1   
    14     8    10 1   
    15     8    11 1   
    16     9    18 1   
    17     9    19 1   
    18     9    20 1   
    19    12    21 1   
    20    13    14 1   
    21    13    15 1   
@<TRIPOS>SUBSTRUCTURE
     1 1DF         1 TEMP              0 ****  ****    0 ROOT
