@<TRIPOS>MOLECULE
1DF
   21    21     1     0     0
SMALL
No Charge or Current Charge


@<TRIPOS>ATOM
      1 C1           1.2860     0.6100    -0.0250 ca         1 1DF      -0.156600
      2 CO1          0.0180     1.2290     0.0090 ca         1 1DF      -0.027000
      3 CO2          1.3570    -0.8000    -0.0180 ca         1 1DF      -0.080000
      4 CM1         -1.1780     0.4680     0.0500 ca         1 1DF      -0.286200
      5 CM2          0.1830    -1.5820     0.0230 ca         1 1DF       0.038100
      6 OM           0.2340    -2.9700     0.0310 os         1 1DF      -0.336100
      7 CZ          -1.0840    -0.9490     0.0560 ca         1 1DF       0.178100
      8 CC           2.5530     1.4490    -0.0690 c          1 1DF       0.719600
      9 CV           1.4710    -3.7050    -0.0020 c3         1 1DF       0.149900
     10 O1           2.4470     2.6670    -0.0740 o          1 1DF      -0.709000
     11 O2           3.6330     0.8760    -0.0970 o          1 1DF      -0.709000
     12 O3          -2.2070    -1.7310     0.0950 oh         1 1DF      -0.527100
     13 N           -2.4940     1.1950     0.0840 no         1 1DF       0.706200
     14 O11         -3.5390     0.5310     0.1200 o          1 1DF      -0.439000
     15 O22         -2.4810     2.4320     0.0750 o          1 1DF      -0.439000
     16 H1          -0.0300     2.3180     0.0030 ha         1 1DF       0.167000
     17 H2           2.3330    -1.2750    -0.0440 ha         1 1DF       0.147000
     18 H3           2.0380    -3.4760    -0.9130 h1         1 1DF       0.034700
     19 H4           2.0920    -3.4630     0.8710 h1         1 1DF       0.034700
     20 H5           1.2720    -4.7840     0.0120 h1         1 1DF       0.034700
     21 H7          -2.9830    -1.1220     0.1140 ho         1 1DF       0.499000
@<TRIPOS>BOND
     1     1     2 ar  
     2     1     3 ar  
     3     1     8 1   
     4     2     4 ar  
     5     2    16 1   
     6     3     5 ar  
     7     3    17 1   
     8     4     7 ar  
     9     4    13 1   
    10     5     6 1   
    11     5     7 ar  
    12     6     9 1   
    13     7    12 1   
    14     8    10 1   
    15     8    11 1   
    16     9    18 1   
    17     9    19 1   
    18     9    20 1   
    19    12    21 1   
    20    13    14 1   
    21    13    15 1   
@<TRIPOS>SUBSTRUCTURE
     1 1DF         1 TEMP              0 ****  ****    0 ROOT
