@<TRIPOS>MOLECULE
1DH
   10    10     1     0     0
SMALL
No Charge or Current Charge


@<TRIPOS>ATOM
      1 NAD          1.2450    -1.3470     0.0750 nc         1 1DH      -0.724000
      2 CAC         -0.1310    -1.3640     0.0220 cc         1 1DH       0.335900
      3 CAG         -0.7430    -0.1300    -0.0010 cd         1 1DH      -0.072000
      4 ClG         -2.4520     0.1600    -0.0670 cl         1 1DH      -0.129000
      5 SAE          0.4310     1.1690     0.0440 ss         1 1DH      -0.084400
      6 CAF          1.6410    -0.1030     0.0950 cd         1 1DH       0.700300
      7 NAA          2.9630     0.0940     0.1370 nv         1 1DH      -1.037900
      8 H1          -0.6340    -2.3220     0.0010 h4         1 1DH       0.050100
      9 H2           3.3040     0.9940    -0.1800 hn         1 1DH       0.481000
     10 H3           3.5280    -0.7140    -0.0950 hn         1 1DH       0.481000
@<TRIPOS>BOND
     1     1     2 1   
     2     1     6 2   
     3     2     3 2   
     4     2     8 1   
     5     3     4 1   
     6     3     5 1   
     7     5     6 1   
     8     6     7 1   
     9     7     9 1   
    10     7    10 1   
@<TRIPOS>SUBSTRUCTURE
     1 1DH         1 TEMP              0 ****  ****    0 ROOT
