@<TRIPOS>MOLECULE
1DH
   10    10     1     0     0
SMALL
abcg2


@<TRIPOS>ATOM
      1 NAD          1.1920    -1.3840     0.0560 nc         1 1DH      -0.724000
      2 CAC         -0.1740    -1.3790     0.0240 cc         1 1DH       0.335900
      3 CAG         -0.7530    -0.1610     0.0010 cd         1 1DH      -0.072000
      4 CLG         -2.4150     0.2180    -0.0510 cl         1 1DH      -0.129000
      5 SAE          0.4590     1.0840     0.0240 ss         1 1DH      -0.084400
      6 CAF          1.6690    -0.1770     0.0590 cd         1 1DH       0.700300
      7 NAA          2.9810     0.1310     0.1440 nv         1 1DH      -1.037900
      8 H1          -0.7170    -2.3140     0.0160 h4         1 1DH       0.050100
      9 H2           3.2890     1.0380    -0.1660 hn         1 1DH       0.481000
     10 H3           3.6200    -0.6180    -0.0760 hn         1 1DH       0.481000
@<TRIPOS>BOND
     1     1     2 1   
     2     1     6 2   
     3     2     3 2   
     4     2     8 1   
     5     3     4 1   
     6     3     5 1   
     7     5     6 1   
     8     6     7 1   
     9     7     9 1   
    10     7    10 1   
@<TRIPOS>SUBSTRUCTURE
     1 1DH         1 TEMP              0 ****  ****    0 ROOT
