@<TRIPOS>MOLECULE
1DJ
   18    18     1     0     0
SMALL
No Charge or Current Charge


@<TRIPOS>ATOM
      1 CAG         -0.5790    -0.7580    -0.7830 ca         1 1DJ      -0.090500
      2 CAE         -1.9690    -0.9680    -0.7890 ca         1 1DJ      -0.113000
      3 CAD         -2.8200    -0.0720    -0.1220 ca         1 1DJ      -0.101000
      4 CAF         -2.2800     1.0350     0.5520 ca         1 1DJ      -0.113000
      5 CAH         -0.8900     1.2470     0.5590 ca         1 1DJ      -0.090500
      6 CAI         -0.0250     0.3530    -0.1070 ca         1 1DJ      -0.123300
      7 CAJ          1.4860     0.6010    -0.0900 c3         1 1DJ       0.304700
      8 OAB          1.9570     0.8350    -1.4160 oh         1 1DJ      -0.640000
      9 CAC          2.2060    -0.5430     0.4880 c1         1 1DJ      -0.183100
     10 CAA          2.7870    -1.5030     0.9460 c1         1 1DJ      -0.217000
     11 H1           0.0660    -1.4640    -1.3020 ha         1 1DJ       0.115000
     12 H2          -2.3870    -1.8270    -1.3100 ha         1 1DJ       0.114500
     13 H3          -3.8960    -0.2360    -0.1260 ha         1 1DJ       0.114000
     14 H4          -2.9380     1.7300     1.0690 ha         1 1DJ       0.114500
     15 H5          -0.4860     2.1100     1.0850 ha         1 1DJ       0.115000
     16 H6           1.6950     1.4780     0.5400 h1         1 1DJ       0.089700
     17 H7           1.8390    -0.0140    -1.8900 ho         1 1DJ       0.448000
     18 H8           3.2910    -2.3540     1.3590 ha         1 1DJ       0.255000
@<TRIPOS>BOND
     1     1     2 ar  
     2     1     6 ar  
     3     1    11 1   
     4     2     3 ar  
     5     2    12 1   
     6     3     4 ar  
     7     3    13 1   
     8     4     5 ar  
     9     4    14 1   
    10     5     6 ar  
    11     5    15 1   
    12     6     7 1   
    13     7     8 1   
    14     7     9 1   
    15     7    16 1   
    16     8    17 1   
    17     9    10 3   
    18    10    18 1   
@<TRIPOS>SUBSTRUCTURE
     1 1DJ         1 TEMP              0 ****  ****    0 ROOT
