@<TRIPOS>MOLECULE
1DJ
   18    18     1     0     0
SMALL
abcg2


@<TRIPOS>ATOM
      1 CAG         -0.5700    -0.8610    -0.5650 ca         1 1DJ      -0.090500
      2 CAE         -1.9440    -1.0370    -0.6510 ca         1 1DJ      -0.113000
      3 CAD         -2.8040    -0.0540    -0.1800 ca         1 1DJ      -0.101000
      4 CAF         -2.2800     1.1120     0.3800 ca         1 1DJ      -0.113000
      5 CAH         -0.9060     1.2840     0.4600 ca         1 1DJ      -0.090500
      6 CAI         -0.0410     0.2990    -0.0070 ca         1 1DJ      -0.123300
      7 CAJ          1.4530     0.5490     0.0170 c3         1 1DJ       0.304700
      8 OAB          1.9230     1.0690    -1.2070 oh         1 1DJ      -0.640000
      9 CAC          2.2020    -0.6520     0.4140 c1         1 1DJ      -0.183100
     10 CAA          2.8160    -1.6320     0.7370 c1         1 1DJ      -0.217000
     11 H1           0.0890    -1.6420    -0.9240 ha         1 1DJ       0.115000
     12 H2          -2.3420    -1.9440    -1.0850 ha         1 1DJ       0.114500
     13 H3          -3.8760    -0.1910    -0.2420 ha         1 1DJ       0.114000
     14 H4          -2.9440     1.8840     0.7500 ha         1 1DJ       0.114500
     15 H5          -0.5030     2.1900     0.8960 ha         1 1DJ       0.115000
     16 H6           1.6570     1.3250     0.7590 h1         1 1DJ       0.089700
     17 H7           1.7300     0.4340    -1.9060 ho         1 1DJ       0.448000
     18 H8           3.3960    -2.4820     1.0170 ha         1 1DJ       0.255000
@<TRIPOS>BOND
     1     1     2 ar  
     2     1     6 ar  
     3     1    11 1   
     4     2     3 ar  
     5     2    12 1   
     6     3     4 ar  
     7     3    13 1   
     8     4     5 ar  
     9     4    14 1   
    10     5     6 ar  
    11     5    15 1   
    12     6     7 1   
    13     7     8 1   
    14     7     9 1   
    15     7    16 1   
    16     8    17 1   
    17     9    10 3   
    18    10    18 1   
@<TRIPOS>SUBSTRUCTURE
     1 1DJ         1 TEMP              0 ****  ****    0 ROOT
