@<TRIPOS>MOLECULE
1DK
   55    58     1     0     0
SMALL
No Charge or Current Charge


@<TRIPOS>ATOM
      1 CAC         -1.3870     0.8880     2.7220 c3         1 1DK      -0.052800
      2 CBA         -1.3450    -0.3790     1.8700 ca         1 1DK      -0.031300
      3 CAP         -1.6100    -1.6040     2.5140 ca         1 1DK      -0.116000
      4 CAY         -1.5920    -2.8240     1.8150 ca         1 1DK      -0.063300
      5 CAA         -1.8960    -4.1210     2.5600 c3         1 1DK      -0.044800
      6 CAZ         -1.2930    -2.8230     0.4380 ca         1 1DK      -0.082300
      7 CAB         -1.2670    -4.1180    -0.3680 c3         1 1DK      -0.041800
      8 CAQ         -1.0230    -1.6050    -0.2080 ca         1 1DK      -0.082000
      9 CBE         -1.0520    -0.3710     0.4770 ca         1 1DK      -0.088300
     10 CBF         -0.7800     0.9010    -0.3550 c5         1 1DK       0.221200
     11 CAX         -1.7680     2.0700    -0.1880 ce         1 1DK      -0.292400
     12 CAU         -3.2380     1.8420    -0.3880 c          1 1DK       0.645900
     13 OAE         -4.0570     2.6160     0.0880 o          1 1DK      -0.521100
     14 CBC         -3.6820     0.5850    -1.0240 cc         1 1DK      -0.292600
     15 CAK         -4.3920    -0.3820    -0.3540 cd         1 1DK      -0.076000
     16 CAI         -4.5100    -1.5940    -1.0850 cd         1 1DK      -0.147000
     17 CAJ         -3.8630    -1.5690    -2.2950 cc         1 1DK      -0.248000
     18 SAS         -3.0740    -0.0170    -2.5610 ss         1 1DK       0.258000
     19 CAW         -1.0830     3.1490     0.2560 cf         1 1DK       0.096900
     20 OAG         -1.6140     4.3580     0.5440 oh         1 1DK      -0.483100
     21 CAV          0.3560     2.8330     0.4240 c          1 1DK       0.519200
     22 OAF          1.2230     3.6250     0.7780 o          1 1DK      -0.535000
     23 NBG          0.5200     1.4760     0.1070 n          1 1DK      -0.193400
     24 CBD          1.7530     0.7240     0.1510 ca         1 1DK      -0.090000
     25 CAO          2.0630    -0.1690    -0.8970 ca         1 1DK      -0.112000
     26 CAM          3.3140    -0.8050    -0.9560 ca         1 1DK      -0.100500
     27 CAN          2.7780     1.0590     1.0630 ca         1 1DK      -0.112000
     28 CAL          4.0290     0.4230     1.0060 ca         1 1DK      -0.100500
     29 CBB          4.3040    -0.5240     0.0020 ca         1 1DK       0.017700
     30 CAR          5.6610    -1.2170    -0.0590 c3         1 1DK      -0.195100
     31 CAT          6.6190    -0.3890    -0.9270 c          1 1DK       0.726000
     32 OAH          6.6190    -0.5860    -2.1330 o          1 1DK      -0.723000
     33 OAD          7.2560     0.5050    -0.3880 o          1 1DK      -0.723000
     34 H1          -0.4420     1.4380     2.6730 hc         1 1DK       0.046367
     35 H2          -2.2000     1.5540     2.4140 hc         1 1DK       0.046367
     36 H3          -1.5560     0.6580     3.7810 hc         1 1DK       0.046367
     37 H4          -1.8380    -1.6100     3.5770 ha         1 1DK       0.105000
     38 H5          -2.7720    -4.6240     2.1340 hc         1 1DK       0.038033
     39 H6          -1.0480    -4.8140     2.5080 hc         1 1DK       0.038033
     40 H7          -2.1070    -3.9420     3.6210 hc         1 1DK       0.038033
     41 H8          -2.2450    -4.6140    -0.3480 hc         1 1DK       0.038367
     42 H9          -1.0160    -3.9400    -1.4200 hc         1 1DK       0.038367
     43 H10         -0.5240    -4.8180     0.0310 hc         1 1DK       0.038367
     44 H11         -0.7970    -1.6180    -1.2710 ha         1 1DK       0.109000
     45 H12         -4.7990    -0.2450     0.6450 ha         1 1DK       0.145000
     46 H13         -5.0400    -2.4650    -0.7100 ha         1 1DK       0.131000
     47 H14         -3.7780    -2.3470    -3.0430 h4         1 1DK       0.147000
     48 H16         -0.8780     4.9370     0.8450 ho         1 1DK       0.492000
     49 H17          1.3350    -0.3800    -1.6750 ha         1 1DK       0.099500
     50 H18          3.5200    -1.5090    -1.7590 ha         1 1DK       0.113500
     51 H19          2.6000     1.7890     1.8480 ha         1 1DK       0.099500
     52 H20          4.7910     0.6730     1.7400 ha         1 1DK       0.113500
     53 H21          6.0390    -1.2770     0.9690 hc         1 1DK       0.033700
     54 H22          5.4990    -2.2030    -0.5110 hc         1 1DK       0.033700
     55 H24         -0.6830     0.6500    -1.4170 h1         1 1DK       0.070700
@<TRIPOS>BOND
     1     1     2 1   
     2     1    34 1   
     3     1    35 1   
     4     1    36 1   
     5     2     3 ar  
     6     2     9 ar  
     7     3     4 ar  
     8     3    37 1   
     9     4     5 1   
    10     4     6 ar  
    11     5    38 1   
    12     5    39 1   
    13     5    40 1   
    14     6     7 1   
    15     6     8 ar  
    16     7    41 1   
    17     7    42 1   
    18     7    43 1   
    19     8     9 ar  
    20     8    44 1   
    21     9    10 1   
    22    10    11 1   
    23    10    23 1   
    24    10    55 1   
    25    11    12 1   
    26    11    19 2   
    27    12    13 2   
    28    12    14 1   
    29    14    15 2   
    30    14    18 1   
    31    15    16 1   
    32    15    45 1   
    33    16    17 2   
    34    16    46 1   
    35    17    18 1   
    36    17    47 1   
    37    19    20 1   
    38    19    21 1   
    39    20    48 1   
    40    21    22 2   
    41    21    23 1   
    42    23    24 1   
    43    24    25 ar  
    44    24    27 ar  
    45    25    26 ar  
    46    25    49 1   
    47    26    29 ar  
    48    26    50 1   
    49    27    28 ar  
    50    27    51 1   
    51    28    29 ar  
    52    28    52 1   
    53    29    30 1   
    54    30    31 1   
    55    30    53 1   
    56    30    54 1   
    57    31    32 1   
    58    31    33 1   
@<TRIPOS>SUBSTRUCTURE
     1 1DK         1 TEMP              0 ****  ****    0 ROOT
