@<TRIPOS>MOLECULE
1DK
   55    58     1     0     0
SMALL
abcg2


@<TRIPOS>ATOM
      1 CAC         -1.0930     0.8300     2.7760 c3         1 1DK      -0.052800
      2 CBA         -1.0750    -0.4430     1.9780 ca         1 1DK      -0.031300
      3 CAP         -1.2050    -1.6530     2.6540 ca         1 1DK      -0.116000
      4 CAY         -1.1910    -2.8890     2.0180 ca         1 1DK      -0.063300
      5 CAA         -1.3470    -4.1540     2.8080 c3         1 1DK      -0.044800
      6 CAZ         -1.0290    -2.9280     0.6300 ca         1 1DK      -0.082300
      7 CAB         -0.9800    -4.2300    -0.1110 c3         1 1DK      -0.041800
      8 CAQ         -0.9000    -1.7240    -0.0490 ca         1 1DK      -0.082000
      9 CBE         -0.9270    -0.4890     0.5880 ca         1 1DK      -0.088300
     10 CBF         -0.7590     0.7350    -0.2820 c5         1 1DK       0.221200
     11 CAX         -1.8260     1.7950    -0.1550 ce         1 1DK      -0.292400
     12 CAU         -3.2760     1.5680    -0.1890 c          1 1DK       0.645900
     13 OAE         -4.0190     2.2530     0.4910 o          1 1DK      -0.521100
     14 CBC         -3.8360     0.5050    -1.0330 cc         1 1DK      -0.292600
     15 CAK         -5.0580    -0.0910    -0.8460 cd         1 1DK      -0.076000
     16 CAI         -5.3620    -1.0450    -1.8410 cd         1 1DK      -0.147000
     17 CAJ         -4.3780    -1.1470    -2.7820 cc         1 1DK      -0.248000
     18 SAS         -3.0750    -0.1010    -2.4570 ss         1 1DK       0.258000
     19 CAW         -1.2340     2.9730     0.0980 cf         1 1DK       0.096900
     20 OAG         -1.7750     4.1610     0.2650 oh         1 1DK      -0.483100
     21 CAV          0.2400     2.7970     0.1690 c          1 1DK       0.519200
     22 OAF          1.0400     3.6950     0.3530 o          1 1DK      -0.535000
     23 NBG          0.4650     1.4770     0.0000 n          1 1DK      -0.193400
     24 CBD          1.7300     0.8550     0.0290 ca         1 1DK      -0.090000
     25 CAO          2.0950    -0.0280    -0.9820 ca         1 1DK      -0.112000
     26 CAM          3.3220    -0.6680    -0.9340 ca         1 1DK      -0.100500
     27 CAN          2.6050     1.0880     1.0820 ca         1 1DK      -0.112000
     28 CAL          3.8340     0.4450     1.1110 ca         1 1DK      -0.100500
     29 CBB          4.2160    -0.4440     0.1110 ca         1 1DK       0.017700
     30 CAR          5.5430    -1.1310     0.1500 c3         1 1DK      -0.195100
     31 CAT          6.6220    -0.5000    -0.7690 c          1 1DK       0.726000
     32 OAH          6.2460     0.3310    -1.6130 o          1 1DK      -0.723000
     33 OAD          7.7830    -0.9130    -0.5830 o          1 1DK      -0.723000
     34 H1          -0.1920     1.4260     2.6290 hc         1 1DK       0.046367
     35 H2          -1.9440     1.4650     2.5310 hc         1 1DK       0.046367
     36 H3          -1.1560     0.6070     3.8410 hc         1 1DK       0.046367
     37 H4          -1.3180    -1.6290     3.7330 ha         1 1DK       0.105000
     38 H5          -2.2430    -4.7020     2.5100 hc         1 1DK       0.038033
     39 H6          -0.5020    -4.8290     2.6600 hc         1 1DK       0.038033
     40 H7          -1.4240    -3.9490     3.8750 hc         1 1DK       0.038033
     41 H8          -1.8740    -4.8320     0.0630 hc         1 1DK       0.038367
     42 H9          -0.8940    -4.0700    -1.1850 hc         1 1DK       0.038367
     43 H10         -0.1270    -4.8370     0.2000 hc         1 1DK       0.038367
     44 H11         -0.7710    -1.7520    -1.1260 ha         1 1DK       0.109000
     45 H12         -5.7070     0.1440    -0.0150 ha         1 1DK       0.145000
     46 H13         -6.2710    -1.6270    -1.8650 ha         1 1DK       0.131000
     47 H14         -4.3570    -1.7820    -3.6550 h4         1 1DK       0.147000
     48 H16         -1.0770     4.8220     0.3890 ho         1 1DK       0.492000
     49 H17          1.4270    -0.2170    -1.8120 ha         1 1DK       0.099500
     50 H18          3.5830    -1.3590    -1.7250 ha         1 1DK       0.113500
     51 H19          2.3290     1.7520     1.8910 ha         1 1DK       0.099500
     52 H20          4.5060     0.6330     1.9400 ha         1 1DK       0.113500
     53 H21          5.9230    -1.1610     1.1750 hc         1 1DK       0.033700
     54 H22          5.4280    -2.1760    -0.1560 hc         1 1DK       0.033700
     55 H24         -0.7070     0.3940    -1.3220 h1         1 1DK       0.070700
@<TRIPOS>BOND
     1     1     2 1   
     2     1    34 1   
     3     1    35 1   
     4     1    36 1   
     5     2     3 ar  
     6     2     9 ar  
     7     3     4 ar  
     8     3    37 1   
     9     4     5 1   
    10     4     6 ar  
    11     5    38 1   
    12     5    39 1   
    13     5    40 1   
    14     6     7 1   
    15     6     8 ar  
    16     7    41 1   
    17     7    42 1   
    18     7    43 1   
    19     8     9 ar  
    20     8    44 1   
    21     9    10 1   
    22    10    11 1   
    23    10    23 1   
    24    10    55 1   
    25    11    12 1   
    26    11    19 2   
    27    12    13 2   
    28    12    14 1   
    29    14    15 2   
    30    14    18 1   
    31    15    16 1   
    32    15    45 1   
    33    16    17 2   
    34    16    46 1   
    35    17    18 1   
    36    17    47 1   
    37    19    20 1   
    38    19    21 1   
    39    20    48 1   
    40    21    22 2   
    41    21    23 1   
    42    23    24 1   
    43    24    25 ar  
    44    24    27 ar  
    45    25    26 ar  
    46    25    49 1   
    47    26    29 ar  
    48    26    50 1   
    49    27    28 ar  
    50    27    51 1   
    51    28    29 ar  
    52    28    52 1   
    53    29    30 1   
    54    30    31 1   
    55    30    53 1   
    56    30    54 1   
    57    31    32 1   
    58    31    33 1   
@<TRIPOS>SUBSTRUCTURE
     1 1DK         1 TEMP              0 ****  ****    0 ROOT
