@<TRIPOS>MOLECULE
1DL
   46    49     1     0     0
SMALL
No Charge or Current Charge


@<TRIPOS>ATOM
      1 OAB         -6.3070    -0.1420     1.1770 o          1 1DL      -0.713500
      2 CAS         -5.6880     0.7920     0.6870 c          1 1DL       0.712600
      3 OAE         -5.9650     1.9650     0.8950 o          1 1DL      -0.713500
      4 CBC         -4.4690     0.4730    -0.1480 ca         1 1DL      -0.115600
      5 CAQ         -3.4630    -0.3480     0.4070 ca         1 1DL      -0.074000
      6 CAX         -4.3160     0.9630    -1.4680 ca         1 1DL      -0.041300
      7 CAA         -5.3860     1.8230    -2.1350 c3         1 1DL      -0.027800
      8 CAK         -3.1650     0.6160    -2.1990 ca         1 1DL      -0.137000
      9 CAN         -2.1690    -0.1920    -1.6300 ca         1 1DL      -0.141000
     10 CBB         -2.2760    -0.6400    -0.2990 ca         1 1DL      -0.094000
     11 NBE         -1.3070    -1.5890     0.2070 n          1 1DL      -0.201400
     12 CBD          0.1300    -1.5740    -0.1780 c5         1 1DL       0.245200
     13 CBA          0.7810    -0.2350     0.0670 cc         1 1DL      -0.226300
     14 SAR          0.8560     0.5450     1.6420 ss         1 1DL       0.300000
     15 CAO          1.7800     1.8810     0.9630 cc         1 1DL      -0.221000
     16 CAY          1.9850     1.7130    -0.3830 cd         1 1DL      -0.052900
     17 BrA          2.9430     2.9270    -1.4580 br         1 1DL      -0.091100
     18 CAP          1.4120     0.5180    -0.8920 cd         1 1DL      -0.090000
     19 CAV         -1.5390    -2.6400     1.1070 c          1 1DL       0.517200
     20 OAD         -2.6090    -2.9780     1.6010 o          1 1DL      -0.515000
     21 CAU         -0.2200    -3.2850     1.3520 ce         1 1DL       0.110900
     22 OAF         -0.1060    -4.3210     2.2340 oh         1 1DL      -0.476100
     23 CAW          0.7860    -2.7200     0.6420 cf         1 1DL      -0.308400
     24 CAT          2.2500    -3.0080     0.6780 c          1 1DL       0.616900
     25 OAC          2.7260    -3.8140     1.4680 o          1 1DL      -0.519100
     26 CAZ          3.1520    -2.2820    -0.2800 ca         1 1DL      -0.146600
     27 CAL          4.2120    -1.4910     0.2100 ca         1 1DL      -0.074000
     28 CAI          5.0400    -0.7870    -0.6810 ca         1 1DL      -0.119500
     29 CAH          4.8230    -0.8770    -2.0660 ca         1 1DL      -0.098000
     30 CAJ          3.7790    -1.6770    -2.5610 ca         1 1DL      -0.119500
     31 CAM          2.9460    -2.3790    -1.6730 ca         1 1DL      -0.074000
     32 H2          -3.6040    -0.7180     1.4190 ha         1 1DL       0.143000
     33 H3          -5.3760     2.8440    -1.7340 hc         1 1DL       0.038033
     34 H4          -5.2320     1.8950    -3.2180 hc         1 1DL       0.038033
     35 H5          -6.3880     1.4060    -1.9790 hc         1 1DL       0.038033
     36 H6          -3.0460     0.9630    -3.2230 ha         1 1DL       0.089000
     37 H7          -1.3110    -0.4610    -2.2390 ha         1 1DL       0.088000
     38 H8           0.2080    -1.8150    -1.2470 h1         1 1DL       0.079700
     39 H9           2.1020     2.6870     1.6080 h4         1 1DL       0.159000
     40 H10          1.4870     0.2230    -1.9340 ha         1 1DL       0.144000
     41 H11         -1.0100    -4.4910     2.5810 ho         1 1DL       0.495000
     42 H12          4.3820    -1.4110     1.2820 ha         1 1DL       0.121500
     43 H13          5.8490    -0.1700    -0.2970 ha         1 1DL       0.111500
     44 H14          5.4640    -0.3310    -2.7540 ha         1 1DL       0.109000
     45 H15          3.6150    -1.7510    -3.6340 ha         1 1DL       0.111500
     46 H16          2.1430    -2.9980    -2.0670 ha         1 1DL       0.121500
@<TRIPOS>BOND
     1     1     2 1   
     2     2     3 1   
     3     2     4 1   
     4     4     5 ar  
     5     4     6 ar  
     6     5    10 ar  
     7     5    32 1   
     8     6     7 1   
     9     6     8 ar  
    10     7    33 1   
    11     7    34 1   
    12     7    35 1   
    13     8     9 ar  
    14     8    36 1   
    15     9    10 ar  
    16     9    37 1   
    17    10    11 1   
    18    11    12 1   
    19    11    19 1   
    20    12    13 1   
    21    12    23 1   
    22    12    38 1   
    23    13    14 1   
    24    13    18 2   
    25    14    15 1   
    26    15    16 2   
    27    15    39 1   
    28    16    17 1   
    29    16    18 1   
    30    18    40 1   
    31    19    20 2   
    32    19    21 1   
    33    21    22 1   
    34    21    23 2   
    35    22    41 1   
    36    23    24 1   
    37    24    25 2   
    38    24    26 1   
    39    26    27 ar  
    40    26    31 ar  
    41    27    28 ar  
    42    27    42 1   
    43    28    29 ar  
    44    28    43 1   
    45    29    30 ar  
    46    29    44 1   
    47    30    31 ar  
    48    30    45 1   
    49    31    46 1   
@<TRIPOS>SUBSTRUCTURE
     1 1DL         1 TEMP              0 ****  ****    0 ROOT
