@<TRIPOS>MOLECULE
1DL
   46    49     1     0     0
SMALL
bcc


@<TRIPOS>ATOM
      1 OAB         -5.3060     0.5930     1.9330 o          1 1DL      -0.818800
      2 CAS         -5.1220     1.2370     0.8810 c          1 1DL       0.923200
      3 OAE         -5.6180     2.3400     0.5900 o          1 1DL      -0.818800
      4 CBC         -4.1680     0.6090    -0.1330 ca         1 1DL      -0.115600
      5 CAQ         -3.2070    -0.2680     0.3640 ca         1 1DL      -0.092000
      6 CAX         -4.1950     0.8860    -1.5100 ca         1 1DL      -0.041300
      7 CAA         -5.1970     1.7960    -2.1640 c3         1 1DL      -0.027800
      8 CAK         -3.2490     0.2650    -2.3270 ca         1 1DL      -0.155000
      9 CAN         -2.2910    -0.5990    -1.8260 ca         1 1DL      -0.159000
     10 CBB         -2.2690    -0.8650    -0.4650 ca         1 1DL      -0.001400
     11 NBE         -1.2870    -1.7260     0.0710 n          1 1DL      -0.361000
     12 CBD          0.1270    -1.5700    -0.2360 c5         1 1DL       0.245200
     13 CBA          0.6280    -0.2060     0.1210 cc         1 1DL      -0.081400
     14 SAR          0.3990     0.4290     1.7040 ss         1 1DL       0.010200
     15 CAO          1.2440     1.8670     1.3160 cc         1 1DL      -0.094100
     16 CAY          1.6750     1.8380     0.0280 cd         1 1DL      -0.052900
     17 BRA          2.6500     3.2240    -0.7670 br         1 1DL      -0.091100
     18 CAP          1.3220     0.6520    -0.6700 cd         1 1DL      -0.108000
     19 CAV         -1.5260    -2.7700     0.8920 c          1 1DL       0.659700
     20 OAD         -2.5860    -3.1930     1.3070 o          1 1DL      -0.590500
     21 CAU         -0.1910    -3.3480     1.2200 ce         1 1DL       0.110900
     22 OAF         -0.0890    -4.3720     2.0310 oh         1 1DL      -0.437100
     23 CAW          0.7730    -2.6730     0.5700 cf         1 1DL      -0.308400
     24 CAT          2.2160    -2.8720     0.6950 c          1 1DL       0.616900
     25 OAC          2.6900    -3.5160     1.6130 o          1 1DL      -0.519100
     26 CAZ          3.0920    -2.2150    -0.3120 ca         1 1DL      -0.146600
     27 CAL          4.1760    -1.4560     0.1220 ca         1 1DL      -0.092000
     28 CAI          4.9860    -0.8140    -0.8010 ca         1 1DL      -0.137500
     29 CAH          4.7410    -0.9560    -2.1610 ca         1 1DL      -0.116000
     30 CAJ          3.6820    -1.7410    -2.5980 ca         1 1DL      -0.137500
     31 CAM          2.8510    -2.3600    -1.6760 ca         1 1DL      -0.092000
     32 H2          -3.1890    -0.4700     1.4260 ha         1 1DL       0.161000
     33 H3          -5.0280     2.8380    -1.8970 hc         1 1DL       0.038033
     34 H4          -5.1270     1.7090    -3.2490 hc         1 1DL       0.038033
     35 H5          -6.2180     1.5600    -1.8720 hc         1 1DL       0.038033
     36 H6          -3.2680     0.4570    -3.3930 ha         1 1DL       0.107000
     37 H7          -1.5800    -1.0650    -2.4970 ha         1 1DL       0.106000
     38 H8           0.2880    -1.7180    -1.3080 h1         1 1DL       0.079700
     39 H9           1.3690     2.6470     2.0500 h4         1 1DL       0.177000
     40 H10          1.5890     0.4420    -1.6960 ha         1 1DL       0.162000
     41 H11         -0.9720    -4.6600     2.3130 ho         1 1DL       0.456000
     42 H12          4.3690    -1.3430     1.1820 ha         1 1DL       0.139500
     43 H13          5.8120    -0.2040    -0.4600 ha         1 1DL       0.129500
     44 H14          5.3780    -0.4570    -2.8800 ha         1 1DL       0.127000
     45 H15          3.4990    -1.8690    -3.6570 ha         1 1DL       0.129500
     46 H16          2.0290    -2.9730    -2.0260 ha         1 1DL       0.139500
@<TRIPOS>BOND
     1     1     2 1   
     2     2     3 1   
     3     2     4 1   
     4     4     5 ar  
     5     4     6 ar  
     6     5    10 ar  
     7     5    32 1   
     8     6     7 1   
     9     6     8 ar  
    10     7    33 1   
    11     7    34 1   
    12     7    35 1   
    13     8     9 ar  
    14     8    36 1   
    15     9    10 ar  
    16     9    37 1   
    17    10    11 1   
    18    11    12 1   
    19    11    19 1   
    20    12    13 1   
    21    12    23 1   
    22    12    38 1   
    23    13    14 1   
    24    13    18 2   
    25    14    15 1   
    26    15    16 2   
    27    15    39 1   
    28    16    17 1   
    29    16    18 1   
    30    18    40 1   
    31    19    20 2   
    32    19    21 1   
    33    21    22 1   
    34    21    23 2   
    35    22    41 1   
    36    23    24 1   
    37    24    25 2   
    38    24    26 1   
    39    26    27 ar  
    40    26    31 ar  
    41    27    28 ar  
    42    27    42 1   
    43    28    29 ar  
    44    28    43 1   
    45    29    30 ar  
    46    29    44 1   
    47    30    31 ar  
    48    30    45 1   
    49    31    46 1   
@<TRIPOS>SUBSTRUCTURE
     1 1DL         1 TEMP              0 ****  ****    0 ROOT
