@<TRIPOS>MOLECULE
1DM
   75    78     1     0     0
SMALL
bcc


@<TRIPOS>ATOM
      1 C21          5.8810     2.6920     2.0630 c6         1 1DM       0.125550
      2 C22          7.2700     3.1590     1.6760 c6         1 1DM       0.129150
      3 O22          7.2280     4.0870     0.6150 os         1 1DM      -0.400600
      4 C23          6.5790     3.5300    -0.5060 c6         1 1DM       0.129150
      5 C24          5.1750     3.0630    -0.1710 c6         1 1DM       0.125550
      6 N20          5.2170     2.1000     0.9150 n3         1 1DM      -0.732600
      7 C20          3.9080     1.5890     1.2660 c3         1 1DM       0.152800
      8 C19          3.3320     0.6630     0.1910 c3         1 1DM       0.113700
      9 C30          4.3310    -0.4470    -0.1460 c3         1 1DM       0.152800
     10 N19          3.7050    -1.5580    -0.8330 n3         1 1DM      -0.732600
     11 C25          4.5770    -2.7190    -0.8840 c6         1 1DM       0.125550
     12 C26          3.8670    -3.8750    -1.5600 c6         1 1DM       0.129150
     13 O23          3.4340    -3.5290    -2.8580 os         1 1DM      -0.400600
     14 C27          2.5810    -2.4080    -2.8150 c6         1 1DM       0.129150
     15 C28          3.2560    -1.2130    -2.1710 c6         1 1DM       0.125550
     16 N18          2.1120     0.0330     0.6610 ns         1 1DM      -0.556900
     17 C13          0.9360     0.6720     0.7420 c          1 1DM       0.675700
     18 O17          0.7930     1.8640     0.5120 o          1 1DM      -0.604100
     19 C11         -0.2380    -0.1730     1.1430 ca         1 1DM      -0.125600
     20 C12         -1.5030     0.2740     0.7690 ca         1 1DM      -0.113000
     21 C10         -0.0880    -1.3390     1.8790 ca         1 1DM      -0.082000
     22 C9          -1.2310    -2.0460     2.2160 ca         1 1DM      -0.156200
     23 N14         -1.0950    -3.2750     2.9910 no         1 1DM       0.315200
     24 O15          0.0140    -3.6040     3.3370 o          1 1DM      -0.206000
     25 O16         -2.0970    -3.9000     3.2430 o          1 1DM      -0.206000
     26 C8          -2.4970    -1.6290     1.8560 ca         1 1DM      -0.091000
     27 C7          -2.6340    -0.4500     1.1290 ca         1 1DM       0.133100
     28 O1          -3.8990    -0.1000     0.8340 os         1 1DM      -0.339900
     29 C1          -4.1600     1.1250     0.1810 c6         1 1DM       0.314900
     30 O5          -3.7380     1.1070    -1.1370 os         1 1DM      -0.394600
     31 C5          -4.4090     0.1780    -1.9840 c6         1 1DM       0.146100
     32 C6          -3.7870     0.2860    -3.3600 c3         1 1DM       0.148400
     33 O6          -2.4610    -0.1810    -3.2890 oh         1 1DM      -0.594800
     34 C4          -5.9100     0.4240    -1.9990 c6         1 1DM       0.124100
     35 O4          -6.1640     1.6590    -2.6220 oh         1 1DM      -0.593800
     36 C3          -6.4390     0.3910    -0.5670 c6         1 1DM       0.117100
     37 O3          -7.8100     0.7030    -0.6120 oh         1 1DM      -0.607800
     38 C2          -5.6640     1.3850     0.2900 c6         1 1DM       0.092100
     39 O2          -6.1250     1.2900     1.6120 oh         1 1DM      -0.583800
     40 H211         5.3070     3.5410     2.4730 h1         1 1DM       0.044200
     41 H212         5.9670     1.9460     2.8570 h1         1 1DM       0.044200
     42 H221         7.7530     3.6490     2.5230 h1         1 1DM       0.051200
     43 H222         7.8790     2.2870     1.3980 h1         1 1DM       0.051200
     44 H231         6.5430     4.2980    -1.2800 h1         1 1DM       0.051200
     45 H232         7.1540     2.6790    -0.8980 h1         1 1DM       0.051200
     46 H241         4.7540     2.6090    -1.0700 h1         1 1DM       0.044200
     47 H242         4.5400     3.9300     0.0830 h1         1 1DM       0.044200
     48 H201         3.1940     2.4010     1.4730 h1         1 1DM       0.053200
     49 H202         4.0060     1.0040     2.1850 h1         1 1DM       0.053200
     50 H19          3.0970     1.2440    -0.7080 h1         1 1DM       0.057700
     51 H301         5.1640    -0.0170    -0.7200 h1         1 1DM       0.053200
     52 H302         4.7570    -0.8290     0.7870 h1         1 1DM       0.053200
     53 H251         5.5160    -2.4970    -1.4190 h1         1 1DM       0.044200
     54 H252         4.8470    -3.0140     0.1330 h1         1 1DM       0.044200
     55 H261         4.5430    -4.7260    -1.6560 h1         1 1DM       0.051200
     56 H262         3.0140    -4.1890    -0.9420 h1         1 1DM       0.051200
     57 H271         2.2990    -2.1700    -3.8420 h1         1 1DM       0.051200
     58 H272         1.6620    -2.6460    -2.2600 h1         1 1DM       0.051200
     59 H281         2.5320    -0.3970    -2.1230 h1         1 1DM       0.044200
     60 H282         4.0940    -0.8680    -2.8000 h1         1 1DM       0.044200
     61 H18          2.1210    -0.9770     0.5880 hn         1 1DM       0.342500
     62 H12         -1.5720     1.1830     0.1900 ha         1 1DM       0.180000
     63 H10          0.8840    -1.6790     2.2050 ha         1 1DM       0.173000
     64 H8          -3.3790    -2.1900     2.1330 ha         1 1DM       0.183000
     65 H1          -3.6050     1.9330     0.6720 h2         1 1DM       0.084700
     66 H5          -4.2530    -0.8470    -1.6230 h1         1 1DM       0.066700
     67 H61         -3.8360     1.3230    -3.7090 h1         1 1DM       0.040200
     68 H62         -4.3930    -0.3170    -4.0490 h1         1 1DM       0.040200
     69 HO6         -2.0730    -0.0980    -4.1650 ho         1 1DM       0.408000
     70 H4          -6.3720    -0.4040    -2.5570 h1         1 1DM       0.055700
     71 HO4         -7.1050     1.8480    -2.5370 ho         1 1DM       0.425000
     72 H3          -6.2840    -0.6240    -0.1730 h1         1 1DM       0.068700
     73 HO3         -8.1270     0.8270     0.2890 ho         1 1DM       0.431000
     74 H2          -5.8310     2.3910    -0.1150 h1         1 1DM       0.070700
     75 HO2         -5.9340     2.1150     2.0680 ho         1 1DM       0.415000
@<TRIPOS>BOND
     1     1     2 1   
     2     1     6 1   
     3     1    40 1   
     4     1    41 1   
     5     2     3 1   
     6     2    42 1   
     7     2    43 1   
     8     3     4 1   
     9     4     5 1   
    10     4    44 1   
    11     4    45 1   
    12     5     6 1   
    13     5    46 1   
    14     5    47 1   
    15     6     7 1   
    16     7     8 1   
    17     7    48 1   
    18     7    49 1   
    19     8     9 1   
    20     8    16 1   
    21     8    50 1   
    22     9    10 1   
    23     9    51 1   
    24     9    52 1   
    25    10    11 1   
    26    10    15 1   
    27    11    12 1   
    28    11    53 1   
    29    11    54 1   
    30    12    13 1   
    31    12    55 1   
    32    12    56 1   
    33    13    14 1   
    34    14    15 1   
    35    14    57 1   
    36    14    58 1   
    37    15    59 1   
    38    15    60 1   
    39    16    17 1   
    40    16    61 1   
    41    17    18 2   
    42    17    19 1   
    43    19    20 ar  
    44    19    21 ar  
    45    20    27 ar  
    46    20    62 1   
    47    21    22 ar  
    48    21    63 1   
    49    22    23 1   
    50    22    26 ar  
    51    23    24 1   
    52    23    25 1   
    53    26    27 ar  
    54    26    64 1   
    55    27    28 1   
    56    28    29 1   
    57    29    30 1   
    58    29    38 1   
    59    29    65 1   
    60    30    31 1   
    61    31    32 1   
    62    31    34 1   
    63    31    66 1   
    64    32    33 1   
    65    32    67 1   
    66    32    68 1   
    67    33    69 1   
    68    34    35 1   
    69    34    36 1   
    70    34    70 1   
    71    35    71 1   
    72    36    37 1   
    73    36    38 1   
    74    36    72 1   
    75    37    73 1   
    76    38    39 1   
    77    38    74 1   
    78    39    75 1   
@<TRIPOS>SUBSTRUCTURE
     1 1DM         1 TEMP              0 ****  ****    0 ROOT
