@<TRIPOS>MOLECULE
1DM
   75    78     1     0     0
SMALL
No Charge or Current Charge


@<TRIPOS>ATOM
      1 C21          5.5490     3.2480     1.9200 c6         1 1DM       0.125550
      2 C22          6.9370     3.8900     1.6230 c6         1 1DM       0.152350
      3 O22          6.9290     4.5240     0.3220 os         1 1DM      -0.447000
      4 C23          6.6090     3.6000    -0.7450 c6         1 1DM       0.152350
      5 C24          5.2150     2.9480    -0.4990 c6         1 1DM       0.125550
      6 N20          5.1370     2.2900     0.8460 n3         1 1DM      -0.732600
      7 C20          3.8210     1.6520     1.1300 c3         1 1DM       0.152800
      8 C19          3.4190     0.4880     0.1770 c3         1 1DM       0.113700
      9 C30          4.5120    -0.6160     0.1240 c3         1 1DM       0.152800
     10 N19          4.0910    -1.8850    -0.5380 n3         1 1DM      -0.732600
     11 C25          5.0980    -2.9790    -0.3680 c6         1 1DM       0.125550
     12 C26          4.6300    -4.3030    -1.0410 c6         1 1DM       0.152350
     13 O23          4.3240    -4.0770    -2.4380 os         1 1DM      -0.447000
     14 C27          3.2980    -3.0730    -2.6270 c6         1 1DM       0.152350
     15 C28          3.7360    -1.7220    -1.9850 c6         1 1DM       0.125550
     16 N18          2.1320    -0.1210     0.5440 ns         1 1DM      -0.489900
     17 C13          0.8980     0.4800     0.4450 c          1 1DM       0.608700
     18 O17          0.7870     1.6510     0.1070 o          1 1DM      -0.604100
     19 C11         -0.3090    -0.3830     0.7690 ca         1 1DM      -0.125600
     20 C12         -1.6030     0.1820     0.6790 ca         1 1DM      -0.095000
     21 C10         -0.1840    -1.7410     1.1570 ca         1 1DM      -0.064000
     22 C9          -1.3280    -2.5200     1.4540 ca         1 1DM      -0.156200
     23 N14         -1.1880    -3.9570     1.8650 no         1 1DM       0.695200
     24 O15         -0.0500    -4.4400     1.9350 o          1 1DM      -0.396000
     25 O16         -2.2190    -4.5970     2.1160 o          1 1DM      -0.396000
     26 C8          -2.6070    -1.9260     1.3590 ca         1 1DM      -0.073000
     27 C7          -2.7510    -0.5860     0.9720 ca         1 1DM       0.133100
     28 O1          -4.0380    -0.0820     0.9100 os         1 1DM      -0.363100
     29 C1          -4.3130     1.2600     0.4480 c6         1 1DM       0.361300
     30 O5          -3.9530     1.3830    -0.9490 os         1 1DM      -0.441000
     31 C5          -4.7270     0.5440    -1.8500 c6         1 1DM       0.169300
     32 C6          -4.1430     0.6830    -3.2940 c3         1 1DM       0.171600
     33 O6          -2.7560     0.2970    -3.3890 oh         1 1DM      -0.717000
     34 C4          -6.2470     0.9040    -1.7810 c6         1 1DM       0.147300
     35 O4          -6.5290     2.2360    -2.2600 oh         1 1DM      -0.716000
     36 C3          -6.7210     0.7840    -0.3010 c6         1 1DM       0.140300
     37 O3          -8.0960     1.2000    -0.1790 oh         1 1DM      -0.670000
     38 C2          -5.8260     1.6340     0.6520 c6         1 1DM       0.115300
     39 O2          -6.2830     1.4650     2.0220 oh         1 1DM      -0.706000
     40 H211         4.8050     4.0520     2.0200 h1         1 1DM       0.044200
     41 H212         5.6000     2.7340     2.8910 h1         1 1DM       0.044200
     42 H221         7.1740     4.6410     2.3890 h1         1 1DM       0.051200
     43 H222         7.7200     3.1180     1.6470 h1         1 1DM       0.051200
     44 H231         6.6060     4.1410    -1.7020 h1         1 1DM       0.051200
     45 H232         7.3830     2.8210    -0.7950 h1         1 1DM       0.051200
     46 H241         5.0330     2.2190    -1.3010 h1         1 1DM       0.044200
     47 H242         4.4420     3.7260    -0.5890 h1         1 1DM       0.044200
     48 H201         3.0340     2.4170     1.1050 h1         1 1DM       0.053200
     49 H202         3.8300     1.2470     2.1510 h1         1 1DM       0.053200
     50 H19          3.3020     0.8980    -0.8340 h1         1 1DM       0.057700
     51 H301         5.4020    -0.2060    -0.3730 h1         1 1DM       0.053200
     52 H302         4.8030    -0.8360     1.1600 h1         1 1DM       0.053200
     53 H251         6.0620    -2.6820    -0.8080 h1         1 1DM       0.044200
     54 H252         5.2760    -3.1710     0.7000 h1         1 1DM       0.044200
     55 H261         5.4210    -5.0620    -0.9640 h1         1 1DM       0.051200
     56 H262         3.7350    -4.6880    -0.5310 h1         1 1DM       0.051200
     57 H271         3.1210    -2.9360    -3.7020 h1         1 1DM       0.051200
     58 H272         2.3620    -3.4200    -2.1660 h1         1 1DM       0.051200
     59 H281         2.9150    -1.0020    -2.1070 h1         1 1DM       0.044200
     60 H282         4.5960    -1.3280    -2.5470 h1         1 1DM       0.044200
     61 H18          2.1500    -1.1110     0.7480 hn         1 1DM       0.342500
     62 H12         -1.6990     1.2200     0.3780 ha         1 1DM       0.162000
     63 H10          0.7980    -2.2020     1.2330 ha         1 1DM       0.155000
     64 H8          -3.5050    -2.4980     1.5820 ha         1 1DM       0.165000
     65 H1          -3.7090     1.9670     1.0360 h2         1 1DM       0.084700
     66 H5          -4.6010    -0.5070    -1.5510 h1         1 1DM       0.066700
     67 H61         -4.2650     1.7260    -3.6160 h1         1 1DM       0.040200
     68 H62         -4.7510     0.0630    -3.9670 h1         1 1DM       0.040200
     69 HO6         -2.4610     0.5070    -4.3070 ho         1 1DM       0.507000
     70 H4          -6.8030     0.1670    -2.3800 h1         1 1DM       0.055700
     71 HO4         -7.4090     2.4540    -1.8680 ho         1 1DM       0.524000
     72 H3          -6.6260    -0.2720    -0.0020 h1         1 1DM       0.068700
     73 HO3         -8.2400     1.3050     0.7910 ho         1 1DM       0.470000
     74 H2          -5.9300     2.6910     0.3620 h1         1 1DM       0.070700
     75 HO2         -5.7130     2.0240     2.6020 ho         1 1DM       0.514000
@<TRIPOS>BOND
     1     1     2 1   
     2     1     6 1   
     3     1    40 1   
     4     1    41 1   
     5     2     3 1   
     6     2    42 1   
     7     2    43 1   
     8     3     4 1   
     9     4     5 1   
    10     4    44 1   
    11     4    45 1   
    12     5     6 1   
    13     5    46 1   
    14     5    47 1   
    15     6     7 1   
    16     7     8 1   
    17     7    48 1   
    18     7    49 1   
    19     8     9 1   
    20     8    16 1   
    21     8    50 1   
    22     9    10 1   
    23     9    51 1   
    24     9    52 1   
    25    10    11 1   
    26    10    15 1   
    27    11    12 1   
    28    11    53 1   
    29    11    54 1   
    30    12    13 1   
    31    12    55 1   
    32    12    56 1   
    33    13    14 1   
    34    14    15 1   
    35    14    57 1   
    36    14    58 1   
    37    15    59 1   
    38    15    60 1   
    39    16    17 1   
    40    16    61 1   
    41    17    18 2   
    42    17    19 1   
    43    19    20 ar  
    44    19    21 ar  
    45    20    27 ar  
    46    20    62 1   
    47    21    22 ar  
    48    21    63 1   
    49    22    23 1   
    50    22    26 ar  
    51    23    24 1   
    52    23    25 1   
    53    26    27 ar  
    54    26    64 1   
    55    27    28 1   
    56    28    29 1   
    57    29    30 1   
    58    29    38 1   
    59    29    65 1   
    60    30    31 1   
    61    31    32 1   
    62    31    34 1   
    63    31    66 1   
    64    32    33 1   
    65    32    67 1   
    66    32    68 1   
    67    33    69 1   
    68    34    35 1   
    69    34    36 1   
    70    34    70 1   
    71    35    71 1   
    72    36    37 1   
    73    36    38 1   
    74    36    72 1   
    75    37    73 1   
    76    38    39 1   
    77    38    74 1   
    78    39    75 1   
@<TRIPOS>SUBSTRUCTURE
     1 1DM         1 TEMP              0 ****  ****    0 ROOT
