@<TRIPOS>MOLECULE
1DN
   47    51     1     0     0
SMALL
No Charge or Current Charge


@<TRIPOS>ATOM
      1 N12          5.1200    -2.8090    -2.1530 nv         1 1DN      -1.057900
      2 C3           4.3650    -2.2860    -1.1630 ca         1 1DN       0.432900
      3 N2           4.8300    -2.4600     0.0740 nb         1 1DN      -0.345000
      4 N4           3.2460    -1.6580    -1.5420 nb         1 1DN      -0.292000
      5 C5           2.4830    -1.1290    -0.5640 ca         1 1DN       0.108000
      6 C10          1.2920    -0.4500    -0.8760 ca         1 1DN      -0.101000
      7 C9           0.4980     0.1140     0.1370 ca         1 1DN       0.020800
      8 C8           0.8870    -0.0170     1.4830 ca         1 1DN      -0.144000
      9 C7           2.0730    -0.6920     1.8120 ca         1 1DN      -0.046000
     10 C6           2.8750    -1.2500     0.7910 ca         1 1DN      -0.225000
     11 C1           4.0790    -1.9400     1.0480 ca         1 1DN       0.446900
     12 N11          4.5790    -2.1460     2.2940 nv         1 1DN      -1.077900
     13 N13         -0.6800     0.7800    -0.1960 na         1 1DN      -0.090400
     14 C17         -0.9510     2.1150     0.1840 cc         1 1DN       0.361800
     15 C22          0.0700     3.1530     0.3410 cc         1 1DN       0.413100
     16 N26         -0.2030     4.4030     0.7350 nd         1 1DN      -0.595000
     17 C25          0.9440     5.1800     0.7640 cd         1 1DN       0.276900
     18 C24          2.0890     4.5300     0.3800 cc         1 1DN      -0.281000
     19 S23          1.7620     2.8790    -0.0460 ss         1 1DN       0.004600
     20 N16         -2.2910     2.2790     0.3450 nd         1 1DN      -0.513100
     21 C15         -2.8340     1.0310     0.0600 ca         1 1DN       0.065400
     22 C21         -4.1840     0.6660     0.0850 ca         1 1DN      -0.119000
     23 C20         -4.5310    -0.6740    -0.2360 ca         1 1DN       0.097100
     24 O29         -5.8490    -1.1030    -0.2300 os         1 1DN      -0.323100
     25 C30         -6.9440    -0.2290     0.0970 c3         1 1DN       0.144900
     26 C19         -3.5120    -1.6140    -0.5730 ca         1 1DN       0.143100
     27 C18         -2.1540    -1.2080    -0.5890 ca         1 1DN      -0.186000
     28 C14         -1.8710     0.1250    -0.2670 ca         1 1DN      -0.058200
     29 O27         -3.8840    -2.9120    -0.8790 os         1 1DN      -0.316100
     30 C28         -2.9250    -3.9260    -1.2260 c3         1 1DN       0.143900
     31 H1           6.0760    -3.0750    -1.9320 hn         1 1DN       0.496500
     32 H2           4.9410    -2.5030    -3.1060 hn         1 1DN       0.496500
     33 H3           0.9860    -0.3570    -1.9150 ha         1 1DN       0.151000
     34 H4           0.2710     0.4020     2.2750 ha         1 1DN       0.136000
     35 H5           2.3560    -0.7720     2.8590 ha         1 1DN       0.107000
     36 H6           5.3310    -2.8240     2.3870 hn         1 1DN       0.502500
     37 H7           3.9530    -2.0610     3.0890 hn         1 1DN       0.502500
     38 H8           0.8810     6.2170     1.0720 h4         1 1DN       0.045100
     39 H9           3.0970     4.9180     0.3190 h4         1 1DN       0.161000
     40 H10         -4.9290     1.4100     0.3490 ha         1 1DN       0.139000
     41 H11         -6.8390     0.1630     1.1170 h1         1 1DN       0.040367
     42 H12         -6.9930     0.6140    -0.6040 h1         1 1DN       0.040367
     43 H13         -7.8940    -0.7740     0.0390 h1         1 1DN       0.040367
     44 H14         -1.3460    -1.8900    -0.8380 ha         1 1DN       0.132000
     45 H15         -2.3660    -3.6420    -2.1260 h1         1 1DN       0.041033
     46 H16         -2.2150    -4.0890    -0.4050 h1         1 1DN       0.041033
     47 H17         -3.4340    -4.8770    -1.4280 h1         1 1DN       0.041033
@<TRIPOS>BOND
     1     1     2 1   
     2     1    31 1   
     3     1    32 1   
     4     2     3 ar  
     5     2     4 ar  
     6     3    11 ar  
     7     4     5 ar  
     8     5     6 ar  
     9     5    10 ar  
    10     6     7 ar  
    11     6    33 1   
    12     7     8 ar  
    13     7    13 1   
    14     8     9 ar  
    15     8    34 1   
    16     9    10 ar  
    17     9    35 1   
    18    10    11 ar  
    19    11    12 1   
    20    12    36 1   
    21    12    37 1   
    22    13    14 1   
    23    13    28 1   
    24    14    15 1   
    25    14    20 2   
    26    15    16 2   
    27    15    19 1   
    28    16    17 1   
    29    17    18 2   
    30    17    38 1   
    31    18    19 1   
    32    18    39 1   
    33    20    21 1   
    34    21    22 ar  
    35    21    28 ar  
    36    22    23 ar  
    37    22    40 1   
    38    23    24 1   
    39    23    26 ar  
    40    24    25 1   
    41    25    41 1   
    42    25    42 1   
    43    25    43 1   
    44    26    27 ar  
    45    26    29 1   
    46    27    28 ar  
    47    27    44 1   
    48    29    30 1   
    49    30    45 1   
    50    30    46 1   
    51    30    47 1   
@<TRIPOS>SUBSTRUCTURE
     1 1DN         1 TEMP              0 ****  ****    0 ROOT
