@<TRIPOS>MOLECULE
1DN
   47    51     1     0     0
SMALL
abcg2


@<TRIPOS>ATOM
      1 N12          5.1150    -2.2650    -2.5790 nv         1 1DN      -1.057900
      2 C3           4.3890    -1.9230    -1.4970 ca         1 1DN       0.432900
      3 N2           4.9140    -2.2920    -0.3100 nb         1 1DN      -0.345000
      4 N4           3.2450    -1.2960    -1.6960 nb         1 1DN      -0.292000
      5 C5           2.5270    -1.0090    -0.5910 ca         1 1DN       0.108000
      6 C10          1.2890    -0.3470    -0.7350 ca         1 1DN      -0.101000
      7 C9           0.5450    -0.0390     0.3740 ca         1 1DN       0.020800
      8 C8           0.9660    -0.3780     1.6690 ca         1 1DN      -0.144000
      9 C7           2.1680    -1.0200     1.8240 ca         1 1DN      -0.046000
     10 C6           2.9590    -1.3400     0.7110 ca         1 1DN      -0.225000
     11 C1           4.2340    -2.0150     0.7800 ca         1 1DN       0.446900
     12 N11          4.7610    -2.3740     1.9510 nv         1 1DN      -1.077900
     13 N13         -0.6940     0.6330     0.2120 na         1 1DN      -0.090400
     14 C17         -0.9480     1.9810     0.2510 cc         1 1DN       0.361800
     15 C22          0.0660     3.0050     0.4400 cc         1 1DN       0.413100
     16 N26         -0.2480     4.2670     0.4970 nd         1 1DN      -0.595000
     17 C25          0.8510     5.0420     0.6760 cd         1 1DN       0.276900
     18 C24          2.0330     4.3750     0.7590 cc         1 1DN      -0.281000
     19 S23          1.7620     2.6960     0.6070 ss         1 1DN       0.004600
     20 N16         -2.2170     2.2550     0.0950 nd         1 1DN      -0.513100
     21 C15         -2.8360     1.0460    -0.0510 ca         1 1DN       0.065400
     22 C21         -4.1920     0.7490    -0.2470 ca         1 1DN      -0.119000
     23 C20         -4.5580    -0.5740    -0.3650 ca         1 1DN       0.097100
     24 O29         -5.8180    -1.0080    -0.5570 os         1 1DN      -0.323100
     25 C30         -6.8460    -0.0420    -0.6210 c3         1 1DN       0.144900
     26 C19         -3.5810    -1.6180    -0.2900 ca         1 1DN       0.143100
     27 C18         -2.2450    -1.3310    -0.0970 ca         1 1DN      -0.186000
     28 C14         -1.9030     0.0150     0.0190 ca         1 1DN      -0.058200
     29 O27         -4.0790    -2.8580    -0.4220 os         1 1DN      -0.316100
     30 C28         -3.1780    -3.9450    -0.3730 c3         1 1DN       0.143900
     31 H1           6.0640    -2.5700    -2.4510 hn         1 1DN       0.496500
     32 H2           4.8790    -1.8600    -3.4680 hn         1 1DN       0.496500
     33 H3           0.9450    -0.0790    -1.7250 ha         1 1DN       0.151000
     34 H4           0.3530    -0.1260     2.5230 ha         1 1DN       0.136000
     35 H5           2.4890    -1.2710     2.8270 ha         1 1DN       0.107000
     36 H6           5.6440    -2.8560     1.9700 hn         1 1DN       0.502500
     37 H7           4.3060    -2.2130     2.8300 hn         1 1DN       0.502500
     38 H8           0.7440     6.1150     0.7420 h4         1 1DN       0.045100
     39 H9           3.0240     4.7760     0.9000 h4         1 1DN       0.161000
     40 H10         -4.9150     1.5510    -0.2970 ha         1 1DN       0.139000
     41 H11         -6.9240     0.5320     0.3070 h1         1 1DN       0.040367
     42 H12         -6.7030     0.6530    -1.4520 h1         1 1DN       0.040367
     43 H13         -7.7750    -0.5870    -0.7740 h1         1 1DN       0.040367
     44 H14         -1.4920    -2.1050    -0.0390 ha         1 1DN       0.132000
     45 H15         -2.4320    -3.8920    -1.1700 h1         1 1DN       0.041033
     46 H16         -2.6610    -4.0010     0.5890 h1         1 1DN       0.041033
     47 H17         -3.7710    -4.8460    -0.5050 h1         1 1DN       0.041033
@<TRIPOS>BOND
     1     1     2 1   
     2     1    31 1   
     3     1    32 1   
     4     2     3 ar  
     5     2     4 ar  
     6     3    11 ar  
     7     4     5 ar  
     8     5     6 ar  
     9     5    10 ar  
    10     6     7 ar  
    11     6    33 1   
    12     7     8 ar  
    13     7    13 1   
    14     8     9 ar  
    15     8    34 1   
    16     9    10 ar  
    17     9    35 1   
    18    10    11 ar  
    19    11    12 1   
    20    12    36 1   
    21    12    37 1   
    22    13    14 1   
    23    13    28 1   
    24    14    15 1   
    25    14    20 2   
    26    15    16 2   
    27    15    19 1   
    28    16    17 1   
    29    17    18 2   
    30    17    38 1   
    31    18    19 1   
    32    18    39 1   
    33    20    21 1   
    34    21    22 ar  
    35    21    28 ar  
    36    22    23 ar  
    37    22    40 1   
    38    23    24 1   
    39    23    26 ar  
    40    24    25 1   
    41    25    41 1   
    42    25    42 1   
    43    25    43 1   
    44    26    27 ar  
    45    26    29 1   
    46    27    28 ar  
    47    27    44 1   
    48    29    30 1   
    49    30    45 1   
    50    30    46 1   
    51    30    47 1   
@<TRIPOS>SUBSTRUCTURE
     1 1DN         1 TEMP              0 ****  ****    0 ROOT
