@<TRIPOS>MOLECULE
1DO
   39    38     1     0     0
SMALL
bcc


@<TRIPOS>ATOM
      1 O2S         -7.4230     0.3600     0.0040 oh         1 1DO      -0.599800
      2 C1          -6.2810    -0.4710     0.0130 c3         1 1DO       0.140400
      3 C2          -5.0340     0.3920     0.0090 c3         1 1DO      -0.081400
      4 C3          -3.7610    -0.4470     0.0130 c3         1 1DO      -0.075400
      5 C4          -2.4910     0.3940     0.0110 c3         1 1DO      -0.073400
      6 C5          -1.2200    -0.4460     0.0110 c3         1 1DO      -0.074400
      7 C6           0.0540     0.3890     0.0100 c3         1 1DO      -0.074400
      8 C7           1.3250    -0.4520     0.0100 c3         1 1DO      -0.074400
      9 C8           2.5990     0.3830     0.0080 c3         1 1DO      -0.074400
     10 C9           3.8710    -0.4580     0.0080 c3         1 1DO      -0.074400
     11 C10          5.1440     0.3790     0.0050 c3         1 1DO      -0.075400
     12 C11          6.4180    -0.4570     0.0090 c3         1 1DO      -0.074400
     13 C12          7.6800     0.3950     0.0070 c3         1 1DO      -0.088100
     14 H2S         -8.2020    -0.2020     0.0110 ho         1 1DO       0.403000
     15 H1C1        -6.2620    -1.1350    -0.8620 h1         1 1DO       0.014700
     16 H1C2        -6.2660    -1.1190     0.9000 h1         1 1DO       0.014700
     17 H2C1        -5.0420     1.0490     0.8850 hc         1 1DO       0.052200
     18 H2C2        -5.0430     1.0400    -0.8730 hc         1 1DO       0.052200
     19 H3C1        -3.7570    -1.1090    -0.8610 hc         1 1DO       0.036700
     20 H3C2        -3.7580    -1.1030     0.8900 hc         1 1DO       0.036700
     21 H4C1        -2.4910     1.0540     0.8850 hc         1 1DO       0.039700
     22 H4C2        -2.4920     1.0510    -0.8660 hc         1 1DO       0.039700
     23 H5C1        -1.2210    -1.1070    -0.8630 hc         1 1DO       0.036700
     24 H5C2        -1.2210    -1.1050     0.8870 hc         1 1DO       0.036700
     25 H6C1         0.0570     1.0490     0.8850 hc         1 1DO       0.037700
     26 H6C2         0.0550     1.0490    -0.8650 hc         1 1DO       0.037700
     27 H7C1         1.3220    -1.1120    -0.8650 hc         1 1DO       0.036700
     28 H7C2         1.3230    -1.1110     0.8850 hc         1 1DO       0.036700
     29 H8C1         2.6010     1.0430     0.8830 hc         1 1DO       0.037700
     30 H8C2         2.6000     1.0410    -0.8680 hc         1 1DO       0.037700
     31 H9C1         3.8680    -1.1190    -0.8660 hc         1 1DO       0.036700
     32 H9C2         3.8710    -1.1150     0.8850 hc         1 1DO       0.036700
     33 H101         5.1440     1.0430     0.8770 hc         1 1DO       0.036700
     34 H102         5.1450     1.0350    -0.8730 hc         1 1DO       0.036700
     35 H111         6.4200    -1.1190    -0.8630 hc         1 1DO       0.036700
     36 H112         6.4180    -1.1120     0.8860 hc         1 1DO       0.036700
     37 H121         7.7210     1.0380     0.8880 hc         1 1DO       0.031367
     38 H122         8.5820    -0.2170     0.0030 hc         1 1DO       0.031367
     39 H123         7.7160     1.0410    -0.8730 hc         1 1DO       0.031367
@<TRIPOS>BOND
     1     1     2 1   
     2     1    14 1   
     3     2     3 1   
     4     2    15 1   
     5     2    16 1   
     6     3     4 1   
     7     3    17 1   
     8     3    18 1   
     9     4     5 1   
    10     4    19 1   
    11     4    20 1   
    12     5     6 1   
    13     5    21 1   
    14     5    22 1   
    15     6     7 1   
    16     6    23 1   
    17     6    24 1   
    18     7     8 1   
    19     7    25 1   
    20     7    26 1   
    21     8     9 1   
    22     8    27 1   
    23     8    28 1   
    24     9    10 1   
    25     9    29 1   
    26     9    30 1   
    27    10    11 1   
    28    10    31 1   
    29    10    32 1   
    30    11    12 1   
    31    11    33 1   
    32    11    34 1   
    33    12    13 1   
    34    12    35 1   
    35    12    36 1   
    36    13    37 1   
    37    13    38 1   
    38    13    39 1   
@<TRIPOS>SUBSTRUCTURE
     1 1DO         1 TEMP              0 ****  ****    0 ROOT
