@<TRIPOS>MOLECULE
1DQ
   12    12     1     0     0
SMALL
No Charge or Current Charge


@<TRIPOS>ATOM
      1 FAA         -1.6380     0.9440     0.8400 f          1 1DQ      -0.108667
      2 CAI         -1.1570     0.0060    -0.0060 c3         1 1DQ       0.398300
      3 FAB         -1.6880    -1.1800     0.3670 f          1 1DQ      -0.108667
      4 FAC         -1.6310     0.2900    -1.2380 f          1 1DQ      -0.108667
      5 CAH          0.3520    -0.0280     0.0060 cc         1 1DQ      -0.346300
      6 CAE          1.1900    -1.1110     0.0750 cd         1 1DQ       0.315900
      7 NAG          2.5100    -0.7010     0.0520 nd         1 1DQ      -0.674000
      8 CAD          2.4860     0.6220    -0.0320 cc         1 1DQ       0.421400
      9 NAF          1.1900     1.0740    -0.0650 na         1 1DQ      -0.271500
     10 H1           0.9200    -2.1600     0.1390 h4         1 1DQ       0.054100
     11 H3           3.3410     1.2870    -0.0720 h5         1 1DQ       0.063100
     12 H4           0.9220     2.0510    -0.1290 hn         1 1DQ       0.367000
@<TRIPOS>BOND
     1     1     2 1   
     2     2     3 1   
     3     2     4 1   
     4     2     5 1   
     5     5     6 2   
     6     5     9 1   
     7     6     7 1   
     8     6    10 1   
     9     7     8 2   
    10     8     9 1   
    11     8    11 1   
    12     9    12 1   
@<TRIPOS>SUBSTRUCTURE
     1 1DQ         1 TEMP              0 ****  ****    0 ROOT
