@<TRIPOS>MOLECULE
1DQ
   12    12     1     0     0
SMALL
abcg2


@<TRIPOS>ATOM
      1 FAA         -1.6020     0.8610     0.9160 f          1 1DQ      -0.108667
      2 CAI         -1.1160     0.0230    -0.0110 c3         1 1DQ       0.398300
      3 FAB         -1.6470    -1.1810     0.2120 f          1 1DQ      -0.108667
      4 FAC         -1.5870     0.4580    -1.1900 f          1 1DQ      -0.108667
      5 CAH          0.3570    -0.0470     0.0150 cc         1 1DQ      -0.346300
      6 CAE          1.2010    -1.1170     0.1300 cd         1 1DQ       0.315900
      7 NAG          2.4920    -0.6940     0.0880 nd         1 1DQ      -0.674000
      8 CAD          2.4330     0.6080    -0.0500 cc         1 1DQ       0.421400
      9 NAF          1.1650     1.0480    -0.1000 na         1 1DQ      -0.271500
     10 H1           0.9420    -2.1580     0.2380 h4         1 1DQ       0.054100
     11 H3           3.2750     1.2800    -0.1180 h5         1 1DQ       0.063100
     12 H4           0.8820     2.0120    -0.1950 hn         1 1DQ       0.367000
@<TRIPOS>BOND
     1     1     2 1   
     2     2     3 1   
     3     2     4 1   
     4     2     5 1   
     5     5     6 2   
     6     5     9 1   
     7     6     7 1   
     8     6    10 1   
     9     7     8 2   
    10     8     9 1   
    11     8    11 1   
    12     9    12 1   
@<TRIPOS>SUBSTRUCTURE
     1 1DQ         1 TEMP              0 ****  ****    0 ROOT
