@<TRIPOS>MOLECULE
1DR
   28    31     1     0     0
SMALL
No Charge or Current Charge


@<TRIPOS>ATOM
      1 CAA         -2.5590    -0.8200    -0.0070 ca         1 1DR      -0.013200
      2 CAB         -3.8560    -1.3410     0.0010 ca         1 1DR      -0.140000
      3 CAC         -4.9250    -0.4180    -0.0000 ca         1 1DR      -0.081000
      4 CAD         -4.6740     0.9780    -0.0090 ca         1 1DR      -0.143000
      5 CAE         -3.3510     1.4740    -0.0170 ca         1 1DR      -0.053000
      6 CAF         -2.2910     0.5480    -0.0160 cp         1 1DR      -0.078000
      7 CAG         -0.8440     0.7280    -0.0230 cp         1 1DR      -0.084000
      8 CAH         -0.2570    -0.5390    -0.0180 ca         1 1DR      -0.003200
      9 NAI         -1.3120    -1.4650    -0.0090 na         1 1DR      -0.227600
     10 CAJ         -0.0360     1.8920    -0.0330 ca         1 1DR      -0.061000
     11 CAK          1.3750     1.7400    -0.0370 ca         1 1DR      -0.110000
     12 CAL          1.9150     0.4330    -0.0320 ca         1 1DR      -0.029800
     13 CAM          1.1300    -0.6920    -0.0230 ca         1 1DR      -0.092200
     14 CAN          3.2740    -0.0230    -0.0350 cc         1 1DR      -0.273400
     15 CAO          3.2460    -1.4170    -0.0270 cd         1 1DR      -0.082100
     16 NAP          1.8960    -1.8490    -0.0200 na         1 1DR      -0.200700
     17 CAQ          4.4990     0.8060    -0.0450 c          1 1DR       0.614100
     18 OAR          5.6370     0.3460    -0.0470 o          1 1DR      -0.549100
     19 HAB         -4.0360    -2.4140     0.0070 ha         1 1DR       0.114000
     20 HAC         -5.9510    -0.7810     0.0060 ha         1 1DR       0.112000
     21 HAD         -5.5090     1.6740    -0.0090 ha         1 1DR       0.114000
     22 HAE         -3.1550     2.5440    -0.0240 ha         1 1DR       0.117000
     23 HNAI        -1.1910    -2.4700    -0.0040 hn         1 1DR       0.347000
     24 HAJ         -0.4870     2.8810    -0.0360 ha         1 1DR       0.118000
     25 HAK          2.0220     2.6140    -0.0450 ha         1 1DR       0.119000
     26 HAO          4.0750    -2.1220    -0.0270 h4         1 1DR       0.230000
     27 HNAP         1.5630    -2.8080    -0.0130 hn         1 1DR       0.349000
     28 HAQ          4.3300     1.9050    -0.0500 h4         1 1DR      -0.011800
@<TRIPOS>BOND
     1     1     2 ar  
     2     1     6 ar  
     3     1     9 1   
     4     2     3 ar  
     5     2    19 1   
     6     3     4 ar  
     7     3    20 1   
     8     4     5 ar  
     9     4    21 1   
    10     5     6 ar  
    11     5    22 1   
    12     6     7 1   
    13     7     8 ar  
    14     7    10 ar  
    15     8     9 1   
    16     8    13 ar  
    17     9    23 1   
    18    10    11 ar  
    19    10    24 1   
    20    11    12 ar  
    21    11    25 1   
    22    12    13 ar  
    23    12    14 1   
    24    13    16 1   
    25    14    15 2   
    26    14    17 1   
    27    15    16 1   
    28    15    26 1   
    29    16    27 1   
    30    17    18 2   
    31    17    28 1   
@<TRIPOS>SUBSTRUCTURE
     1 1DR         1 TEMP              0 ****  ****    0 ROOT
