@<TRIPOS>MOLECULE
1DR
   28    31     1     0     0
SMALL
bcc


@<TRIPOS>ATOM
      1 CAA         -2.5150    -0.8060    -0.0080 ca         1 1DR      -0.013200
      2 CAB         -3.8040    -1.3310     0.0010 ca         1 1DR      -0.158000
      3 CAC         -4.8590    -0.4350     0.0000 ca         1 1DR      -0.099000
      4 CAD         -4.6410     0.9490    -0.0080 ca         1 1DR      -0.161000
      5 CAE         -3.3570     1.4650    -0.0170 ca         1 1DR      -0.071000
      6 CAF         -2.2770     0.5840    -0.0170 cp         1 1DR      -0.078000
      7 CAG         -0.8470     0.7600    -0.0230 cp         1 1DR      -0.084000
      8 CAH         -0.3000    -0.5330    -0.0180 ca         1 1DR      -0.003200
      9 NAI         -1.3070    -1.4570    -0.0080 na         1 1DR      -0.177300
     10 CAJ         -0.0200     1.8970    -0.0330 ca         1 1DR      -0.079000
     11 CAK          1.3490     1.7570    -0.0380 ca         1 1DR      -0.128000
     12 CAL          1.9100     0.4630    -0.0330 ca         1 1DR      -0.029800
     13 CAM          1.0870    -0.6730    -0.0230 ca         1 1DR      -0.092200
     14 CAN          3.2620    -0.0290    -0.0350 cc         1 1DR      -0.273400
     15 CAO          3.1850    -1.4090    -0.0270 cd         1 1DR      -0.032100
     16 NAP          1.8950    -1.7830    -0.0200 na         1 1DR      -0.150400
     17 CAQ          4.4780     0.7450    -0.0440 c          1 1DR       0.614100
     18 OAR          5.6020     0.2790    -0.0460 o          1 1DR      -0.549100
     19 HAB         -3.9750    -2.4000     0.0060 ha         1 1DR       0.132000
     20 HAC         -5.8730    -0.8130     0.0060 ha         1 1DR       0.130000
     21 HAD         -5.4890     1.6220    -0.0090 ha         1 1DR       0.132000
     22 HAE         -3.1970     2.5360    -0.0230 ha         1 1DR       0.135000
     23 HNAI        -1.1910    -2.4570    -0.0050 hn         1 1DR       0.296700
     24 HAJ         -0.4610     2.8860    -0.0360 ha         1 1DR       0.136000
     25 HAK          1.9850     2.6320    -0.0450 ha         1 1DR       0.137000
     26 HAO          3.9740    -2.1430    -0.0260 h4         1 1DR       0.180000
     27 HNAP         1.5840    -2.7420    -0.0120 hn         1 1DR       0.298700
     28 HAQ          4.3280     1.8390    -0.0500 h4         1 1DR      -0.011800
@<TRIPOS>BOND
     1     1     2 ar  
     2     1     6 ar  
     3     1     9 1   
     4     2     3 ar  
     5     2    19 1   
     6     3     4 ar  
     7     3    20 1   
     8     4     5 ar  
     9     4    21 1   
    10     5     6 ar  
    11     5    22 1   
    12     6     7 1   
    13     7     8 ar  
    14     7    10 ar  
    15     8     9 1   
    16     8    13 ar  
    17     9    23 1   
    18    10    11 ar  
    19    10    24 1   
    20    11    12 ar  
    21    11    25 1   
    22    12    13 ar  
    23    12    14 1   
    24    13    16 1   
    25    14    15 2   
    26    14    17 1   
    27    15    16 1   
    28    15    26 1   
    29    16    27 1   
    30    17    18 2   
    31    17    28 1   
@<TRIPOS>SUBSTRUCTURE
     1 1DR         1 TEMP              0 ****  ****    0 ROOT
