@<TRIPOS>MOLECULE
1DS
   74    75     1     0     0
SMALL
No Charge or Current Charge


@<TRIPOS>ATOM
      1 O6          -3.3410    -0.1760     3.3510 oh         1 1DS      -0.728000
      2 C6          -3.0620    -1.5280     2.9040 c3         1 1DS       0.173600
      3 C5          -2.9110    -1.6580     1.3520 c6         1 1DS       0.176300
      4 C4          -2.5170    -3.0950     0.8730 c6         1 1DS       0.144300
      5 C3          -2.2460    -3.1140    -0.6700 c6         1 1DS       0.134300
      6 C2          -1.3130    -1.9390    -1.1130 c6         1 1DS       0.114300
      7 C1          -1.8350    -0.5990    -0.5070 c6         1 1DS       0.366300
      8 O5          -1.8950    -0.7320     0.9230 os         1 1DS      -0.452000
      9 O1          -0.9800     0.5130    -0.8460 os         1 1DS      -0.439000
     10 C16         -1.5370     1.8640    -0.7360 c5         1 1DS       0.419000
     11 C15         -2.5150     2.1940    -1.9560 c5         1 1DS       0.121300
     12 C14         -3.9250     2.3300    -1.2950 c5         1 1DS       0.099300
     13 C13         -3.5460     2.6800     0.1860 c5         1 1DS       0.096300
     14 O2          -2.3680     1.8980     0.4440 os         1 1DS      -0.435000
     15 C12         -4.6370     2.3380     1.2460 c3         1 1DS       0.170600
     16 O7          -4.1190     2.4280     2.5830 oh         1 1DS      -0.720000
     17 O4          -4.6640     1.0980    -1.4510 oh         1 1DS      -0.702000
     18 O3          -2.5970     1.2130    -3.0020 oh         1 1DS      -0.688000
     19 C17         -0.3910     2.9230    -0.5980 c3         1 1DS       0.176600
     20 O8           0.7280     2.3710     0.1360 os         1 1DS      -0.413100
     21 O9          -1.2120    -1.8850    -2.5590 oh         1 1DS      -0.737000
     22 O11         -3.4900    -3.0470    -1.3900 oh         1 1DS      -0.655000
     23 O10         -3.5410    -4.0580     1.1740 oh         1 1DS      -0.702000
     24 C1N          1.8210     3.1680     0.3330 c          1 1DS       0.595100
     25 C2N          2.9270     2.4370     1.0960 c3         1 1DS      -0.137400
     26 O1N          1.9320     4.3100    -0.0950 o          1 1DS      -0.499000
     27 C3N          3.9200     1.7510     0.1270 c3         1 1DS      -0.067400
     28 C4N          5.0470     0.9890     0.8580 c3         1 1DS      -0.076400
     29 C5N          6.0380     0.3030    -0.1080 c3         1 1DS      -0.074400
     30 H1          -3.3450    -0.2130     4.3380 ho         1 1DS       0.508000
     31 H2          -2.1340    -1.8910     3.3660 h1         1 1DS       0.038200
     32 H3          -3.8680    -2.2010     3.2260 h1         1 1DS       0.038200
     33 H4          -3.8700    -1.3690     0.8970 h1         1 1DS       0.067700
     34 H5          -1.5850    -3.3750     1.3870 h1         1 1DS       0.043700
     35 H6          -1.7350    -4.0570    -0.9140 h1         1 1DS       0.044700
     36 H7          -0.3170    -2.1210    -0.6810 h1         1 1DS       0.065700
     37 H8          -2.8440    -0.4150    -0.8980 h2         1 1DS       0.060700
     38 H9          -2.2320     3.1610    -2.3920 h1         1 1DS       0.048700
     39 H10         -4.4840     3.1580    -1.7530 h1         1 1DS       0.048700
     40 H11         -3.2850     3.7440     0.2750 h1         1 1DS       0.068700
     41 H12         -5.4790     3.0310     1.1140 h1         1 1DS       0.041700
     42 H13         -5.0150     1.3220     1.0700 h1         1 1DS       0.041700
     43 H14         -3.6740     1.5490     2.7480 ho         1 1DS       0.543000
     44 H15         -5.6170     1.2970    -1.2870 ho         1 1DS       0.513000
     45 H16         -3.4620     0.7750    -2.7840 ho         1 1DS       0.516000
     46 H17         -0.0680     3.2170    -1.6050 h1         1 1DS       0.061200
     47 H18         -0.7850     3.8170    -0.0990 h1         1 1DS       0.061200
     48 H19         -0.8970    -0.9730    -2.7800 ho         1 1DS       0.544000
     49 H20         -3.2280    -2.8110    -2.3110 ho         1 1DS       0.463000
     50 H21         -4.0740    -4.1000     0.3410 ho         1 1DS       0.509000
     51 H22          3.4700     3.1560     1.7190 hc         1 1DS       0.076200
     52 H23          2.4740     1.6530     1.7140 hc         1 1DS       0.076200
     53 H24          3.3710     1.0530    -0.5170 hc         1 1DS       0.052700
     54 H25          4.3650     2.5100    -0.5300 hc         1 1DS       0.052700
     55 H26          5.5960     1.6870     1.5020 hc         1 1DS       0.037700
     56 H27          4.6020     0.2300     1.5150 hc         1 1DS       0.037700
     57 H28          5.4880    -0.3950    -0.7520 hc         1 1DS       0.039700
     58 H29          6.4830     1.0610    -0.7640 hc         1 1DS       0.039700
     59 C7           7.1640    -0.4600     0.6230 c3         1 1DS      -0.074400
     60 C8           8.1550    -1.1450    -0.3430 c3         1 1DS      -0.074400
     61 C9           9.2820    -1.9080     0.3880 c3         1 1DS      -0.075400
     62 C10         10.2730    -2.5940    -0.5780 c3         1 1DS      -0.075400
     63 C11         11.3970    -3.3550     0.1510 c3         1 1DS      -0.088100
     64 H30          7.7140     0.2390     1.2660 hc         1 1DS       0.036700
     65 H31          6.7190    -1.2170     1.2800 hc         1 1DS       0.036700
     66 H32          7.6060    -1.8440    -0.9870 hc         1 1DS       0.037700
     67 H33          8.6010    -0.3870    -1.0000 hc         1 1DS       0.037700
     68 H34          9.8310    -1.2100     1.0310 hc         1 1DS       0.036700
     69 H35          8.8360    -2.6660     1.0440 hc         1 1DS       0.036700
     70 H36          9.7270    -3.2950    -1.2220 hc         1 1DS       0.036700
     71 H37         10.7220    -1.8380    -1.2350 hc         1 1DS       0.036700
     72 H38         12.0730    -3.8230    -0.5740 hc         1 1DS       0.031367
     73 H39         11.9840    -2.6730     0.7780 hc         1 1DS       0.031367
     74 H40         10.9810    -4.1420     0.7910 hc         1 1DS       0.031367
@<TRIPOS>BOND
     1     1     2 1   
     2     1    30 1   
     3     2     3 1   
     4     2    31 1   
     5     2    32 1   
     6     3     4 1   
     7     3     8 1   
     8     3    33 1   
     9     4     5 1   
    10     4    23 1   
    11     4    34 1   
    12     5     6 1   
    13     5    22 1   
    14     5    35 1   
    15     6     7 1   
    16     6    21 1   
    17     6    36 1   
    18     7     8 1   
    19     7     9 1   
    20     7    37 1   
    21     9    10 1   
    22    10    11 1   
    23    10    14 1   
    24    10    19 1   
    25    11    12 1   
    26    11    18 1   
    27    11    38 1   
    28    12    13 1   
    29    12    17 1   
    30    12    39 1   
    31    13    14 1   
    32    13    15 1   
    33    13    40 1   
    34    15    16 1   
    35    15    41 1   
    36    15    42 1   
    37    16    43 1   
    38    17    44 1   
    39    18    45 1   
    40    19    20 1   
    41    19    46 1   
    42    19    47 1   
    43    20    24 1   
    44    21    48 1   
    45    22    49 1   
    46    23    50 1   
    47    24    25 1   
    48    24    26 2   
    49    25    27 1   
    50    25    51 1   
    51    25    52 1   
    52    27    28 1   
    53    27    53 1   
    54    27    54 1   
    55    28    29 1   
    56    28    55 1   
    57    28    56 1   
    58    29    57 1   
    59    29    58 1   
    60    29    59 1   
    61    59    60 1   
    62    59    64 1   
    63    59    65 1   
    64    60    61 1   
    65    60    66 1   
    66    60    67 1   
    67    61    62 1   
    68    61    68 1   
    69    61    69 1   
    70    62    63 1   
    71    62    70 1   
    72    62    71 1   
    73    63    72 1   
    74    63    73 1   
    75    63    74 1   
@<TRIPOS>SUBSTRUCTURE
     1 1DS         1 TEMP              0 ****  ****    0 ROOT
