@<TRIPOS>MOLECULE
1DS
   74    75     1     0     0
SMALL
bcc


@<TRIPOS>ATOM
      1 O6          -1.6650    -0.3290     3.2870 oh         1 1DS      -0.605800
      2 C6          -1.9200    -1.6390     2.8180 c3         1 1DS       0.150400
      3 C5          -2.7440    -1.5380     1.5540 c6         1 1DS       0.153100
      4 C4          -3.0970    -2.8960     0.9460 c6         1 1DS       0.121100
      5 C3          -3.8720    -2.6930    -0.3590 c6         1 1DS       0.111100
      6 C2          -3.0970    -1.7580    -1.2920 c6         1 1DS       0.091100
      7 C1          -2.7240    -0.4890    -0.5340 c6         1 1DS       0.319900
      8 O5          -1.9830    -0.8220     0.6060 os         1 1DS      -0.405600
      9 O1          -1.9160     0.2700    -1.3650 os         1 1DS      -0.392600
     10 C16         -1.8780     1.6650    -1.2110 c5         1 1DS       0.372600
     11 C15         -3.0200     2.3890    -1.9630 c5         1 1DS       0.098100
     12 C14         -4.0640     2.7170    -0.8820 c5         1 1DS       0.076100
     13 C13         -3.1830     2.8010     0.3770 c5         1 1DS       0.073100
     14 O2          -2.0000     2.0450     0.1150 os         1 1DS      -0.388600
     15 C12         -3.8300     2.2840     1.6520 c3         1 1DS       0.147400
     16 O7          -2.9480     2.3130     2.7470 oh         1 1DS      -0.597800
     17 O4          -5.0490     1.7180    -0.8650 oh         1 1DS      -0.579800
     18 O3          -3.4580     1.6060    -3.0290 oh         1 1DS      -0.565800
     19 C17         -0.5270     2.0950    -1.7640 c3         1 1DS       0.153400
     20 O8           0.4760     1.4100    -1.0290 os         1 1DS      -0.389900
     21 O9          -3.9170    -1.4870    -2.4040 oh         1 1DS      -0.614800
     22 O11         -5.1350    -2.1560    -0.0510 oh         1 1DS      -0.592800
     23 O10         -3.8320    -3.6360     1.8860 oh         1 1DS      -0.579800
     24 C1N          1.7460     1.6210    -1.3570 c          1 1DS       0.644100
     25 C2N          2.6700     0.7870    -0.5120 c3         1 1DS      -0.137400
     26 O1N          2.0870     2.3830    -2.2270 o          1 1DS      -0.548000
     27 C3N          4.1410     0.9590    -0.8520 c3         1 1DS      -0.067400
     28 C4N          5.0260     0.0550    -0.0020 c3         1 1DS      -0.076400
     29 C5N          6.5080     0.1980    -0.3230 c3         1 1DS      -0.074400
     30 H1          -1.3040    -0.3870     4.1760 ho         1 1DS       0.409000
     31 H2          -0.9850    -2.1740     2.6070 h1         1 1DS       0.038200
     32 H3          -2.4770    -2.2250     3.5540 h1         1 1DS       0.038200
     33 H4          -3.6740    -0.9960     1.7900 h1         1 1DS       0.067700
     34 H5          -2.1530    -3.4010     0.6920 h1         1 1DS       0.043700
     35 H6          -3.9780    -3.6700    -0.8570 h1         1 1DS       0.044700
     36 H7          -2.1660    -2.2600    -1.5970 h1         1 1DS       0.065700
     37 H8          -3.6420     0.0380    -0.2450 h2         1 1DS       0.060700
     38 H9          -2.6210     3.3510    -2.3140 h1         1 1DS       0.048700
     39 H10         -4.5180     3.6940    -1.0730 h1         1 1DS       0.048700
     40 H11         -2.8890     3.8470     0.5280 h1         1 1DS       0.068700
     41 H12         -4.6830     2.9280     1.8880 h1         1 1DS       0.041700
     42 H13         -4.2280     1.2760     1.4930 h1         1 1DS       0.041700
     43 H14         -2.4490     1.4850     2.7600 ho         1 1DS       0.444000
     44 H15         -5.7920     2.0270    -0.3370 ho         1 1DS       0.414000
     45 H16         -4.1080     2.1020    -3.5370 ho         1 1DS       0.417000
     46 H17         -0.4630     1.8570    -2.8290 h1         1 1DS       0.061200
     47 H18         -0.4200     3.1770    -1.6530 h1         1 1DS       0.061200
     48 H19         -3.7190    -0.6030    -2.7430 ho         1 1DS       0.445000
     49 H20         -5.5020    -1.8070    -0.8720 ho         1 1DS       0.424000
     50 H21         -3.9330    -4.5350     1.5570 ho         1 1DS       0.410000
     51 H22          2.4860     1.0330     0.5390 hc         1 1DS       0.076200
     52 H23          2.3720    -0.2600    -0.6220 hc         1 1DS       0.076200
     53 H24          4.3050     0.7350    -1.9090 hc         1 1DS       0.052700
     54 H25          4.4380     2.0010    -0.7050 hc         1 1DS       0.052700
     55 H26          4.8620     0.2740     1.0590 hc         1 1DS       0.037700
     56 H27          4.7230    -0.9880    -0.1470 hc         1 1DS       0.037700
     57 H28          6.6700    -0.0100    -1.3860 hc         1 1DS       0.039700
     58 H29          6.8160     1.2370    -0.1660 hc         1 1DS       0.039700
     59 C7           7.3910    -0.7220     0.5110 c3         1 1DS      -0.074400
     60 C8           8.8750    -0.5840     0.1940 c3         1 1DS      -0.074400
     61 C9           9.7560    -1.5100     1.0240 c3         1 1DS      -0.075400
     62 C10         11.2420    -1.3650     0.7180 c3         1 1DS      -0.075400
     63 C11         12.1130    -2.2960     1.5500 c3         1 1DS      -0.088100
     64 H30          7.2280    -0.5170     1.5740 hc         1 1DS       0.036700
     65 H31          7.0820    -1.7620     0.3510 hc         1 1DS       0.036700
     66 H32          9.0390    -0.7840    -0.8700 hc         1 1DS       0.037700
     67 H33          9.1860     0.4540     0.3590 hc         1 1DS       0.037700
     68 H34          9.5870    -1.3140     2.0880 hc         1 1DS       0.036700
     69 H35          9.4510    -2.5490     0.8540 hc         1 1DS       0.036700
     70 H36         11.4130    -1.5590    -0.3460 hc         1 1DS       0.036700
     71 H37         11.5470    -0.3280     0.8890 hc         1 1DS       0.036700
     72 H38         13.1720    -2.1630     1.3270 hc         1 1DS       0.031367
     73 H39         11.9760    -2.1150     2.6180 hc         1 1DS       0.031367
     74 H40         11.8660    -3.3430     1.3610 hc         1 1DS       0.031367
@<TRIPOS>BOND
     1     1     2 1   
     2     1    30 1   
     3     2     3 1   
     4     2    31 1   
     5     2    32 1   
     6     3     4 1   
     7     3     8 1   
     8     3    33 1   
     9     4     5 1   
    10     4    23 1   
    11     4    34 1   
    12     5     6 1   
    13     5    22 1   
    14     5    35 1   
    15     6     7 1   
    16     6    21 1   
    17     6    36 1   
    18     7     8 1   
    19     7     9 1   
    20     7    37 1   
    21     9    10 1   
    22    10    11 1   
    23    10    14 1   
    24    10    19 1   
    25    11    12 1   
    26    11    18 1   
    27    11    38 1   
    28    12    13 1   
    29    12    17 1   
    30    12    39 1   
    31    13    14 1   
    32    13    15 1   
    33    13    40 1   
    34    15    16 1   
    35    15    41 1   
    36    15    42 1   
    37    16    43 1   
    38    17    44 1   
    39    18    45 1   
    40    19    20 1   
    41    19    46 1   
    42    19    47 1   
    43    20    24 1   
    44    21    48 1   
    45    22    49 1   
    46    23    50 1   
    47    24    25 1   
    48    24    26 2   
    49    25    27 1   
    50    25    51 1   
    51    25    52 1   
    52    27    28 1   
    53    27    53 1   
    54    27    54 1   
    55    28    29 1   
    56    28    55 1   
    57    28    56 1   
    58    29    57 1   
    59    29    58 1   
    60    29    59 1   
    61    59    60 1   
    62    59    64 1   
    63    59    65 1   
    64    60    61 1   
    65    60    66 1   
    66    60    67 1   
    67    61    62 1   
    68    61    68 1   
    69    61    69 1   
    70    62    63 1   
    71    62    70 1   
    72    62    71 1   
    73    63    72 1   
    74    63    73 1   
    75    63    74 1   
@<TRIPOS>SUBSTRUCTURE
     1 1DS         1 TEMP              0 ****  ****    0 ROOT
