@<TRIPOS>MOLECULE
1DT
   42    45     1     0     0
SMALL
abcg2


@<TRIPOS>ATOM
      1 C1           0.9220     1.3440     0.2730 cc         1 1DT      -0.324000
      2 C2           1.4170     2.6240     0.1450 cd         1 1DT      -0.111100
      3 N3           0.4070     3.5130     0.0050 na         1 1DT      -0.301400
      4 C4          -0.4970     1.4720     0.2120 ca         1 1DT       0.384800
      5 C5          -0.7790     2.8410     0.0390 ca         1 1DT       0.270500
      6 N6          -1.9950     3.3400    -0.0710 nb         1 1DT      -0.617000
      7 C7          -2.9640     2.4480    -0.0170 ca         1 1DT       0.300900
      8 C8          -2.6890     1.0720     0.1450 ca         1 1DT       0.516300
      9 N9          -1.4870     0.5780     0.2620 nb         1 1DT      -0.639000
     10 C10          1.6920     0.1110     0.5100 c          1 1DT       0.642300
     11 N11          2.9600     0.1240     0.0580 ns         1 1DT      -0.514900
     12 O12          1.2010    -0.8420     1.1020 o          1 1DT      -0.577100
     13 C13          3.9040    -0.9640     0.2650 c3         1 1DT       0.148700
     14 C14          5.2820    -0.3480     0.3910 cx         1 1DT      -0.141700
     15 C15          3.7670    -2.0330    -0.8130 c3         1 1DT      -0.111100
     16 C16          6.5350    -1.0710     0.0130 cx         1 1DT      -0.129400
     17 C17          6.0680     0.0910    -0.8100 cx         1 1DT      -0.129400
     18 O18         -3.7670     0.2600     0.1940 os         1 1DT      -0.368400
     19 C19         -3.5910    -1.0990     0.0590 ca         1 1DT       0.112100
     20 C20         -3.9020    -1.9130     1.1360 ca         1 1DT      -0.106000
     21 C21         -3.8110    -3.2920     0.9940 ca         1 1DT      -0.098000
     22 C22         -3.4020    -3.8470    -0.2100 ca         1 1DT      -0.109000
     23 C23         -3.0890    -3.0170    -1.2800 ca         1 1DT      -0.098000
     24 C24         -3.1830    -1.6390    -1.1520 ca         1 1DT      -0.106000
     25 H1           2.4380     2.9690     0.1700 h4         1 1DT       0.220000
     26 H2           0.5190     4.5110    -0.0810 hn         1 1DT       0.368000
     27 H3          -3.9860     2.7970    -0.1040 h4         1 1DT       0.046100
     28 H4           3.2480     0.8610    -0.5680 hn         1 1DT       0.305500
     29 H5           3.6560    -1.4190     1.2250 h1         1 1DT       0.080700
     30 H6           5.3670     0.3020     1.2560 hc         1 1DT       0.080700
     31 H7           4.0120    -1.6520    -1.8050 hc         1 1DT       0.043700
     32 H8           4.4130    -2.8860    -0.6050 hc         1 1DT       0.043700
     33 H9           2.7410    -2.4000    -0.8410 hc         1 1DT       0.043700
     34 H10          7.4020    -0.9380     0.6470 hc         1 1DT       0.071700
     35 H11          6.4570    -2.0600    -0.4210 hc         1 1DT       0.071700
     36 H12          5.6740    -0.1190    -1.7970 hc         1 1DT       0.071700
     37 H13          6.6140     1.0240    -0.7450 hc         1 1DT       0.071700
     38 H14         -4.2210    -1.4740     2.0720 ha         1 1DT       0.123500
     39 H15         -4.0590    -3.9300     1.8320 ha         1 1DT       0.114000
     40 H16         -3.3310    -4.9210    -0.3180 ha         1 1DT       0.114000
     41 H17         -2.7730    -3.4420    -2.2230 ha         1 1DT       0.114000
     42 H18         -2.9500    -0.9950    -1.9900 ha         1 1DT       0.123500
@<TRIPOS>BOND
     1     1     2 2   
     2     1     4 1   
     3     1    10 1   
     4     2     3 1   
     5     2    25 1   
     6     3     5 1   
     7     3    26 1   
     8     4     5 ar  
     9     4     9 ar  
    10     5     6 ar  
    11     6     7 ar  
    12     7     8 ar  
    13     7    27 1   
    14     8     9 ar  
    15     8    18 1   
    16    10    11 1   
    17    10    12 2   
    18    11    13 1   
    19    11    28 1   
    20    13    14 1   
    21    13    15 1   
    22    13    29 1   
    23    14    16 1   
    24    14    17 1   
    25    14    30 1   
    26    15    31 1   
    27    15    32 1   
    28    15    33 1   
    29    16    17 1   
    30    16    34 1   
    31    16    35 1   
    32    17    36 1   
    33    17    37 1   
    34    18    19 1   
    35    19    20 ar  
    36    19    24 ar  
    37    20    21 ar  
    38    20    38 1   
    39    21    22 ar  
    40    21    39 1   
    41    22    23 ar  
    42    22    40 1   
    43    23    24 ar  
    44    23    41 1   
    45    24    42 1   
@<TRIPOS>SUBSTRUCTURE
     1 1DT         1 TEMP              0 ****  ****    0 ROOT
