@<TRIPOS>MOLECULE
1DT
   42    45     1     0     0
SMALL
No Charge or Current Charge


@<TRIPOS>ATOM
      1 C1           0.9490     1.2750    -0.0220 cc         1 1DT      -0.324000
      2 C2           1.5120     2.5160    -0.3290 cd         1 1DT      -0.111100
      3 N3           0.4750     3.4780    -0.4260 na         1 1DT      -0.301400
      4 C4          -0.4670     1.4760     0.0720 ca         1 1DT       0.384800
      5 C5          -0.7200     2.8270    -0.1790 ca         1 1DT       0.270500
      6 N6          -1.9720     3.3440    -0.1630 nb         1 1DT      -0.617000
      7 C7          -2.9530     2.4290     0.1150 ca         1 1DT       0.300900
      8 C8          -2.6840     1.0430     0.3610 ca         1 1DT       0.516300
      9 N9          -1.4130     0.5500     0.3500 nb         1 1DT      -0.639000
     10 C10          1.6750     0.0020     0.1670 c          1 1DT       0.642300
     11 N11          3.0360     0.1240     0.0130 ns         1 1DT      -0.514900
     12 O12          1.1480    -1.0660     0.4380 o          1 1DT      -0.577100
     13 C13          3.9940    -0.9730     0.1150 c3         1 1DT       0.148700
     14 C14          5.3400    -0.3880     0.5650 cx         1 1DT      -0.141700
     15 C15          4.0130    -1.7930    -1.1980 c3         1 1DT      -0.111100
     16 C16          6.6760    -1.0410     0.2810 cx         1 1DT      -0.129400
     17 C17          6.3130     0.2660    -0.3920 cx         1 1DT      -0.129400
     18 O18         -3.7400     0.2020     0.6550 os         1 1DT      -0.368400
     19 C19         -3.7290    -1.1480     0.3840 ca         1 1DT       0.112100
     20 C20         -4.2210    -2.0380     1.3540 ca         1 1DT      -0.106000
     21 C21         -4.2470    -3.4200     1.0960 ca         1 1DT      -0.098000
     22 C22         -3.7910    -3.9120    -0.1400 ca         1 1DT      -0.109000
     23 C23         -3.3130    -3.0230    -1.1190 ca         1 1DT      -0.098000
     24 C24         -3.2860    -1.6400    -0.8600 ca         1 1DT      -0.106000
     25 H1           2.5530     2.7970    -0.4860 h4         1 1DT       0.220000
     26 H2           0.5750     4.4650    -0.6360 hn         1 1DT       0.368000
     27 H3          -3.9750     2.8040     0.1420 h4         1 1DT       0.046100
     28 H4           3.3880     1.0430    -0.2060 hn         1 1DT       0.305500
     29 H5           3.6520    -1.6460     0.9140 h1         1 1DT       0.080700
     30 H6           5.2480     0.0830     1.5420 hc         1 1DT       0.080700
     31 H7           4.3420    -1.1830    -2.0460 hc         1 1DT       0.043700
     32 H8           4.6770    -2.6600    -1.1100 hc         1 1DT       0.043700
     33 H9           3.0110    -2.1720    -1.4270 hc         1 1DT       0.043700
     34 H10          7.4270    -1.0120     1.0670 hc         1 1DT       0.071700
     35 H11          6.7130    -1.9320    -0.3400 hc         1 1DT       0.071700
     36 H12          6.0970     0.2430    -1.4570 hc         1 1DT       0.071700
     37 H13          6.8220     1.1660    -0.0560 hc         1 1DT       0.071700
     38 H14         -4.5780    -1.6560     2.3070 ha         1 1DT       0.123500
     39 H15         -4.6230    -4.1080     1.8500 ha         1 1DT       0.114000
     40 H16         -3.8110    -4.9810    -0.3410 ha         1 1DT       0.114000
     41 H17         -2.9660    -3.4030    -2.0770 ha         1 1DT       0.114000
     42 H18         -2.9250    -0.9570    -1.6240 ha         1 1DT       0.123500
@<TRIPOS>BOND
     1     1     2 2   
     2     1     4 1   
     3     1    10 1   
     4     2     3 1   
     5     2    25 1   
     6     3     5 1   
     7     3    26 1   
     8     4     5 ar  
     9     4     9 ar  
    10     5     6 ar  
    11     6     7 ar  
    12     7     8 ar  
    13     7    27 1   
    14     8     9 ar  
    15     8    18 1   
    16    10    11 1   
    17    10    12 2   
    18    11    13 1   
    19    11    28 1   
    20    13    14 1   
    21    13    15 1   
    22    13    29 1   
    23    14    16 1   
    24    14    17 1   
    25    14    30 1   
    26    15    31 1   
    27    15    32 1   
    28    15    33 1   
    29    16    17 1   
    30    16    34 1   
    31    16    35 1   
    32    17    36 1   
    33    17    37 1   
    34    18    19 1   
    35    19    20 ar  
    36    19    24 ar  
    37    20    21 ar  
    38    20    38 1   
    39    21    22 ar  
    40    21    39 1   
    41    22    23 ar  
    42    22    40 1   
    43    23    24 ar  
    44    23    41 1   
    45    24    42 1   
@<TRIPOS>SUBSTRUCTURE
     1 1DT         1 TEMP              0 ****  ****    0 ROOT
