@<TRIPOS>MOLECULE
1DU
   16    16     1     0     0
SMALL
No Charge or Current Charge


@<TRIPOS>ATOM
      1 CAD          1.2070    -1.0380     0.3940 cc         1 1DU      -0.172000
      2 CAB          2.4290    -0.4320     0.4400 cd         1 1DU      -0.231000
      3 CAC          2.3210     0.7970    -0.2380 cd         1 1DU       0.238900
      4 NAG          1.1060     1.0050    -0.7090 nc         1 1DU      -0.529800
      5 NAH          0.4230    -0.1320    -0.3160 na         1 1DU       0.125800
      6 CAF         -1.0020    -0.2940    -0.6510 c3         1 1DU       0.081600
      7 CAE         -1.9370     0.1860     0.4770 c3         1 1DU       0.141600
      8 OAA         -3.3100    -0.0140     0.1050 oh         1 1DU      -0.662000
      9 H1           0.8410    -1.9810     0.7810 h4         1 1DU       0.152000
     10 H2           3.3240    -0.8230     0.9120 ha         1 1DU       0.145000
     11 H3           3.0920     1.5410    -0.4000 h4         1 1DU       0.036100
     12 H4          -1.2160     0.2690    -1.5670 h1         1 1DU       0.074700
     13 H5          -1.1910    -1.3550    -0.8530 h1         1 1DU       0.074700
     14 H6          -1.7060    -0.3710     1.3950 h1         1 1DU       0.034700
     15 H7          -1.7460     1.2500     0.6730 h1         1 1DU       0.034700
     16 H8          -3.8630     0.3110     0.8510 ho         1 1DU       0.452000
@<TRIPOS>BOND
     1     1     2 2   
     2     1     5 1   
     3     1     9 1   
     4     2     3 1   
     5     2    10 1   
     6     3     4 2   
     7     3    11 1   
     8     4     5 1   
     9     5     6 1   
    10     6     7 1   
    11     6    12 1   
    12     6    13 1   
    13     7     8 1   
    14     7    14 1   
    15     7    15 1   
    16     8    16 1   
@<TRIPOS>SUBSTRUCTURE
     1 1DU         1 TEMP              0 ****  ****    0 ROOT
