@<TRIPOS>MOLECULE
1DU
   16    16     1     0     0
SMALL
abcg2


@<TRIPOS>ATOM
      1 CAD          1.2310    -1.0850     0.2520 cc         1 1DU      -0.172000
      2 CAB          2.4390    -0.4450     0.4040 cd         1 1DU      -0.231000
      3 CAC          2.2100     0.8430    -0.1060 cd         1 1DU       0.238900
      4 NAG          0.9670     0.9780    -0.5320 nc         1 1DU      -0.529800
      5 NAH          0.3900    -0.2000    -0.3130 na         1 1DU       0.125800
      6 CAF         -1.0130    -0.3860    -0.6000 c3         1 1DU       0.081600
      7 CAE         -1.8850     0.2730     0.4580 c3         1 1DU       0.141600
      8 OAA         -3.2250     0.0150     0.1140 oh         1 1DU      -0.662000
      9 H1           0.9180    -2.0870     0.4980 h4         1 1DU       0.152000
     10 H2           3.3500    -0.8490     0.8140 ha         1 1DU       0.145000
     11 H3           2.9050     1.6660    -0.1830 h4         1 1DU       0.036100
     12 H4          -1.2270     0.0290    -1.5850 h1         1 1DU       0.074700
     13 H5          -1.2090    -1.4580    -0.6370 h1         1 1DU       0.074700
     14 H6          -1.6250    -0.1390     1.4410 h1         1 1DU       0.034700
     15 H7          -1.6670     1.3470     0.4880 h1         1 1DU       0.034700
     16 H8          -3.7880     0.4170     0.7810 ho         1 1DU       0.452000
@<TRIPOS>BOND
     1     1     2 2   
     2     1     5 1   
     3     1     9 1   
     4     2     3 1   
     5     2    10 1   
     6     3     4 2   
     7     3    11 1   
     8     4     5 1   
     9     5     6 1   
    10     6     7 1   
    11     6    12 1   
    12     6    13 1   
    13     7     8 1   
    14     7    14 1   
    15     7    15 1   
    16     8    16 1   
@<TRIPOS>SUBSTRUCTURE
     1 1DU         1 TEMP              0 ****  ****    0 ROOT
