@<TRIPOS>MOLECULE
1DV
   15    15     1     0     0
SMALL
No Charge or Current Charge


@<TRIPOS>ATOM
      1 FAB         -2.2670    -1.0110     0.0730 f          1 1DV      -0.108333
      2 CAJ         -1.5030     0.1050    -0.0100 c3         1 1DV       0.292700
      3 FAC         -1.8460     0.7340    -1.1580 f          1 1DV      -0.108333
      4 FAD         -1.8700     0.9120     1.0120 f          1 1DV      -0.108333
      5 CAI         -0.0130    -0.2030     0.0320 cc         1 1DV       0.133300
      6 CAE          0.9620     0.8080    -0.0400 cc         1 1DV      -0.178000
      7 CAH          2.1780     0.2030     0.0230 cd         1 1DV      -0.138300
      8 CAA          3.5640     0.7910    -0.0090 c3         1 1DV      -0.033800
      9 NAG          1.8850    -1.1630     0.1310 na         1 1DV       0.009800
     10 NAF          0.5120    -1.4140     0.1360 nd         1 1DV      -0.462800
     11 H1           0.7600     1.8710    -0.1290 ha         1 1DV       0.158000
     12 H2           4.1170     0.5490     0.9060 hc         1 1DV       0.056033
     13 H3           4.1360     0.4050    -0.8610 hc         1 1DV       0.056033
     14 H4           3.5290     1.8830    -0.0990 hc         1 1DV       0.056033
     15 H5           2.5630    -1.9210     0.2010 hn         1 1DV       0.376000
@<TRIPOS>BOND
     1     1     2 1   
     2     2     3 1   
     3     2     4 1   
     4     2     5 1   
     5     5     6 1   
     6     5    10 2   
     7     6     7 2   
     8     6    11 1   
     9     7     8 1   
    10     7     9 1   
    11     8    12 1   
    12     8    13 1   
    13     8    14 1   
    14     9    10 1   
    15     9    15 1   
@<TRIPOS>SUBSTRUCTURE
     1 1DV         1 TEMP              0 ****  ****    0 ROOT
