@<TRIPOS>MOLECULE
1DV
   15    15     1     0     0
SMALL
bcc


@<TRIPOS>ATOM
      1 FAB         -2.1240    -1.0820     0.2560 f          1 1DV      -0.229633
      2 CAJ         -1.4820     0.0550    -0.0120 c3         1 1DV       0.656600
      3 FAC         -1.9030     0.4730    -1.2170 f          1 1DV      -0.229633
      4 FAD         -1.8980     0.9740     0.8700 f          1 1DV      -0.229633
      5 CAI         -0.0080    -0.1070     0.0290 cc         1 1DV       0.198600
      6 CAE          0.9570     0.9120    -0.0100 cc         1 1DV      -0.261300
      7 CAH          2.1580     0.2400     0.0240 cd         1 1DV      -0.087600
      8 CAA          3.5600     0.7320     0.0130 c3         1 1DV      -0.033800
      9 NAG          1.8390    -1.0690     0.0770 na         1 1DV       0.009400
     10 NAF          0.5380    -1.3040     0.0810 nd         1 1DV      -0.462800
     11 H1           0.8080     1.9780    -0.0550 ha         1 1DV       0.176000
     12 H2           4.1040     0.4030     0.8990 hc         1 1DV       0.056033
     13 H3           4.1010     0.3720    -0.8620 hc         1 1DV       0.056033
     14 H4           3.5750     1.8190    -0.0060 hc         1 1DV       0.056033
     15 H5           2.4800    -1.8460     0.1200 hn         1 1DV       0.325700
@<TRIPOS>BOND
     1     1     2 1   
     2     2     3 1   
     3     2     4 1   
     4     2     5 1   
     5     5     6 1   
     6     5    10 2   
     7     6     7 2   
     8     6    11 1   
     9     7     8 1   
    10     7     9 1   
    11     8    12 1   
    12     8    13 1   
    13     8    14 1   
    14     9    10 1   
    15     9    15 1   
@<TRIPOS>SUBSTRUCTURE
     1 1DV         1 TEMP              0 ****  ****    0 ROOT
