@<TRIPOS>MOLECULE
1DW
   15    15     1     0     0
SMALL
bcc


@<TRIPOS>ATOM
      1 OAA         -1.3720    -2.2820    -0.0150 o          1 1DW      -0.484100
      2 CAD         -0.1770    -2.1270     0.0190 c          1 1DW       0.578500
      3 CAJ          0.5420    -0.8360     0.0060 ca         1 1DW      -0.127600
      4 CAI         -0.0390     0.4320    -0.0670 ca         1 1DW      -0.005900
      5 BR1         -1.9000     0.7040    -0.1670 br         1 1DW      -0.060100
      6 CAF          0.7710     1.5590    -0.0670 ca         1 1DW      -0.083000
      7 CAE          2.1480     1.4420     0.0050 ca         1 1DW      -0.138000
      8 CAH          2.7450     0.1860     0.0780 ca         1 1DW       0.143100
      9 OAB          4.0830     0.1240     0.1470 oh         1 1DW      -0.486100
     10 CAG          1.9320    -0.9390     0.0770 ca         1 1DW      -0.196000
     11 H1           0.5030    -2.9950     0.0670 h4         1 1DW      -0.012800
     12 H2           0.3350     2.5470    -0.1230 ha         1 1DW       0.153000
     13 H3           2.7630     2.3330     0.0060 ha         1 1DW       0.154000
     14 H4           4.3810    -0.7910     0.2110 ho         1 1DW       0.431000
     15 H5           2.3750    -1.9290     0.1340 ha         1 1DW       0.135000
@<TRIPOS>BOND
     1     1     2 2   
     2     2     3 1   
     3     2    11 1   
     4     3     4 ar  
     5     3    10 ar  
     6     4     5 1   
     7     4     6 ar  
     8     6     7 ar  
     9     6    12 1   
    10     7     8 ar  
    11     7    13 1   
    12     8     9 1   
    13     8    10 ar  
    14     9    14 1   
    15    10    15 1   
@<TRIPOS>SUBSTRUCTURE
     1 1DW         1 TEMP              0 ****  ****    0 ROOT
