@<TRIPOS>MOLECULE
1DW
   15    15     1     0     0
SMALL
No Charge or Current Charge


@<TRIPOS>ATOM
      1 OAA         -1.4260    -2.2800    -0.0370 o          1 1DW      -0.484100
      2 CAD         -0.2070    -2.1670     0.0190 c          1 1DW       0.578500
      3 CAJ          0.5640    -0.8600     0.0100 ca         1 1DW      -0.127600
      4 CAI         -0.0380     0.4280    -0.0650 ca         1 1DW      -0.005900
      5 Br1         -1.9380     0.7130    -0.1690 br         1 1DW      -0.060100
      6 CAF          0.7670     1.5830    -0.0670 ca         1 1DW      -0.065000
      7 CAE          2.1640     1.4800     0.0060 ca         1 1DW      -0.120000
      8 CAH          2.7680     0.2200     0.0800 ca         1 1DW       0.143100
      9 OAB          4.1260     0.1250     0.1510 oh         1 1DW      -0.525100
     10 CAG          1.9760    -0.9390     0.0830 ca         1 1DW      -0.178000
     11 H1           0.4260    -3.0800     0.0820 h4         1 1DW      -0.012800
     12 H2           0.3030     2.5650    -0.1240 ha         1 1DW       0.135000
     13 H3           2.7770     2.3780     0.0040 ha         1 1DW       0.136000
     14 H4           4.3700    -0.8240     0.1960 ho         1 1DW       0.470000
     15 H5           2.4570    -1.9140     0.1410 ha         1 1DW       0.117000
@<TRIPOS>BOND
     1     1     2 2   
     2     2     3 1   
     3     2    11 1   
     4     3     4 ar  
     5     3    10 ar  
     6     4     5 1   
     7     4     6 ar  
     8     6     7 ar  
     9     6    12 1   
    10     7     8 ar  
    11     7    13 1   
    12     8     9 1   
    13     8    10 ar  
    14     9    14 1   
    15    10    15 1   
@<TRIPOS>SUBSTRUCTURE
     1 1DW         1 TEMP              0 ****  ****    0 ROOT
