@<TRIPOS>MOLECULE
1DX
   76    79     1     0     0
SMALL
No Charge or Current Charge


@<TRIPOS>ATOM
      1 FAA         -6.6940    -5.4120     0.1190 f          1 1DX      -0.196000
      2 OAA         -5.9550     5.9050     3.3830 o          1 1DX      -0.751000
      3 CAB         -4.3260    -5.6590     0.1200 ca         1 1DX      -0.124000
      4 OAB          3.2680    -0.9740    -3.4700 o          1 1DX      -0.737500
      5 CAC         -5.4690    -4.8510     0.2060 ca         1 1DX       0.116000
      6 OAC         -6.7750     6.5420     1.4980 o          1 1DX      -0.751000
      7 CAD         -5.3470    -3.4650     0.3800 ca         1 1DX      -0.116000
      8 OAD          2.0340    -2.4560    -4.4160 o          1 1DX      -0.737500
      9 CAE         -3.0480    -5.0780     0.2070 ca         1 1DX      -0.190000
     10 FAE          7.0070     4.0020     1.2510 f          1 1DX      -0.123000
     11 CAG          5.8770     1.2490    -0.0600 ca         1 1DX      -0.071500
     12 CAH          6.2610     1.7380     1.2060 ca         1 1DX      -0.211300
     13 CAI          7.4290     2.7220     1.3430 c3         1 1DX       0.354300
     14 CAJ          4.8000     0.3550    -0.1840 ca         1 1DX      -0.104500
     15 FAJ          8.3670     2.5450     0.3840 f          1 1DX      -0.123000
     16 CAK          4.4550     0.4320     2.2130 ca         1 1DX      -0.104500
     17 FAK          8.0670     2.6010     2.5310 f          1 1DX      -0.123000
     18 CAN          1.7760    -0.9210     1.6500 ca         1 1DX      -0.091000
     19 CAO          2.9250    -2.0570    -0.1570 ca         1 1DX      -0.091000
     20 CAP          0.6970    -1.8120     1.5240 ca         1 1DX      -0.087000
     21 CAQ          1.8440    -2.9460    -0.2890 ca         1 1DX      -0.087000
     22 CAR         -1.4760    -0.2950    -3.3670 ca         1 1DX      -0.124500
     23 CAS         -0.1460     0.8260    -1.6740 ca         1 1DX      -0.124500
     24 CAT         -0.3290    -0.9650    -3.8260 ca         1 1DX      -0.096500
     25 CAU          1.0040     0.1650    -2.1390 ca         1 1DX      -0.096500
     26 CAV         -5.0960     3.8490     1.0860 c3         1 1DX      -0.051400
     27 CAW         -3.9630     3.1060     0.3420 c3         1 1DX      -0.087400
     28 CAX         -4.7410     5.3170     1.4280 c3         1 1DX      -0.200400
     29 CBB         -4.3320     1.6420    -0.0010 c3         1 1DX       0.170800
     30 CBC         -3.5810    -0.6370    -0.6590 c3         1 1DX       0.180800
     31 CBD         -0.4440    -3.8060     0.4150 c3         1 1DX       0.219900
     32 CBE         -2.6390     1.3440    -1.7950 c3         1 1DX       0.225100
     33 CBG         -5.9130     5.9910     2.1660 c          1 1DX       0.715000
     34 CBH          2.1730    -1.4500    -3.7320 c          1 1DX       0.720600
     35 CBI          4.0650    -0.0740     0.9480 cp         1 1DX      -0.006000
     36 CBJ          2.9150    -1.0240     0.8130 cp         1 1DX      -0.034000
     37 CBK          0.7210    -2.8300     0.5510 ca         1 1DX      -0.100300
     38 CBL         -1.3940     0.6040    -2.2870 ca         1 1DX      -0.110300
     39 CBM          0.9300    -0.7410    -3.2230 ca         1 1DX      -0.145600
     40 CBN         -4.0710    -2.8700     0.4710 ca         1 1DX      -0.074300
     41 CBO         -2.9150    -3.6810     0.3830 ca         1 1DX       0.146100
     42 NBP         -3.2180     0.8060    -0.5310 n3         1 1DX      -0.728600
     43 CZD          5.5330     1.3250     2.3420 ca         1 1DX      -0.071500
     44 HAB         -4.4310    -6.7330    -0.0160 ha         1 1DX       0.117000
     45 HAD         -6.2450    -2.8550     0.4420 ha         1 1DX       0.133000
     46 HAE         -2.1790    -5.7250     0.1360 ha         1 1DX       0.113000
     47 HAG          6.4090     1.5630    -0.9560 ha         1 1DX       0.122500
     48 HAJ          4.5230     0.0050    -1.1750 ha         1 1DX       0.159500
     49 HAK          3.9240     0.1200     3.1090 ha         1 1DX       0.159500
     50 HAN          1.7190    -0.1340     2.3970 ha         1 1DX       0.133500
     51 HAO          3.7840    -2.1780    -0.8120 ha         1 1DX       0.133500
     52 HAP         -0.1630    -1.7070     2.1820 ha         1 1DX       0.115500
     53 HAQ          1.8840    -3.7270    -1.0450 ha         1 1DX       0.115500
     54 HAR         -2.4330    -0.4780    -3.8510 ha         1 1DX       0.098000
     55 HAS         -0.0690     1.5140    -0.8360 ha         1 1DX       0.098000
     56 HAT         -0.4190    -1.6540    -4.6630 ha         1 1DX       0.115500
     57 HAU          1.9560     0.3570    -1.6510 ha         1 1DX       0.115500
     58 HAV         -6.0020     3.8320     0.4680 hc         1 1DX       0.033200
     59 HAVA        -5.3310     3.3110     2.0120 hc         1 1DX       0.033200
     60 HAW         -3.7320     3.6580    -0.5760 hc         1 1DX       0.036700
     61 HAWA        -3.0590     3.1120     0.9640 hc         1 1DX       0.036700
     62 HAX         -3.8570     5.2690     2.0770 hc         1 1DX       0.017200
     63 HAXA        -4.5570     5.8140     0.4670 hc         1 1DX       0.017200
     64 HBA         -3.1980    -1.1280     1.4170 hc         1 1DX       0.062200
     65 HBAA        -4.9020    -0.9590     1.0410 hc         1 1DX       0.062200
     66 HBB         -4.7130     1.1980     0.9260 h1         1 1DX       0.019200
     67 HBBA        -5.1650     1.6490    -0.7170 h1         1 1DX       0.019200
     68 HBC         -2.7330    -1.1900    -1.0810 h1         1 1DX       0.033700
     69 HBCA        -4.4130    -0.7520    -1.3680 h1         1 1DX       0.033700
     70 HBD         -0.3950    -4.5370     1.2330 h1         1 1DX       0.033200
     71 HBDA        -0.3640    -4.3460    -0.5370 h1         1 1DX       0.033200
     72 HBE         -2.3460     2.3930    -1.6650 h1         1 1DX       0.029700
     73 HBEA        -3.4000     1.3270    -2.5880 h1         1 1DX       0.029700
     74 HZD          5.7980     1.6930     3.3310 ha         1 1DX       0.122500
     75 CBA         -3.9570    -1.3570     0.6580 c3         1 1DX      -0.030100
     76 OBF         -1.6780    -3.0720     0.4700 os         1 1DX      -0.327100
@<TRIPOS>BOND
     1     1     5 1   
     2     2    33 1   
     3     3     5 ar  
     4     3     9 ar  
     5     3    44 1   
     6     4    34 1   
     7     5     7 ar  
     8     6    33 1   
     9     7    40 ar  
    10     7    45 1   
    11     8    34 1   
    12     9    41 ar  
    13     9    46 1   
    14    10    13 1   
    15    11    12 ar  
    16    11    14 ar  
    17    11    47 1   
    18    12    13 1   
    19    12    43 ar  
    20    13    15 1   
    21    13    17 1   
    22    14    35 ar  
    23    14    48 1   
    24    16    35 ar  
    25    16    43 ar  
    26    16    49 1   
    27    18    20 ar  
    28    18    36 ar  
    29    18    50 1   
    30    19    21 ar  
    31    19    36 ar  
    32    19    51 1   
    33    20    37 ar  
    34    20    52 1   
    35    21    37 ar  
    36    21    53 1   
    37    22    24 ar  
    38    22    38 ar  
    39    22    54 1   
    40    23    25 ar  
    41    23    38 ar  
    42    23    55 1   
    43    24    39 ar  
    44    24    56 1   
    45    25    39 ar  
    46    25    57 1   
    47    26    27 1   
    48    26    28 1   
    49    26    58 1   
    50    26    59 1   
    51    27    29 1   
    52    27    60 1   
    53    27    61 1   
    54    28    33 1   
    55    28    62 1   
    56    28    63 1   
    57    29    42 1   
    58    29    66 1   
    59    29    67 1   
    60    30    42 1   
    61    30    68 1   
    62    30    69 1   
    63    30    75 1   
    64    31    37 1   
    65    31    70 1   
    66    31    71 1   
    67    31    76 1   
    68    32    38 1   
    69    32    42 1   
    70    32    72 1   
    71    32    73 1   
    72    34    39 1   
    73    35    36 1   
    74    40    41 ar  
    75    40    75 1   
    76    41    76 1   
    77    43    74 1   
    78    64    75 1   
    79    65    75 1   
@<TRIPOS>SUBSTRUCTURE
     1 1DX         1 TEMP              0 ****  ****    0 ROOT
