@<TRIPOS>MOLECULE
1DX
   76    79     1     0     0
SMALL
bcc


@<TRIPOS>ATOM
      1 FAA         -6.6780    -5.0730     0.6830 f          1 1DX      -0.160900
      2 OAA         -6.7340     5.5870     2.0900 o          1 1DX      -0.856300
      3 CAB         -4.3730    -5.5310     0.6140 ca         1 1DX      -0.142000
      4 OAB          3.3930    -0.3350    -3.0290 o          1 1DX      -0.842800
      5 CAC         -5.4060    -4.6240     0.6600 ca         1 1DX       0.080900
      6 OAC         -5.1280     7.0820     2.3740 o          1 1DX      -0.856300
      7 CAD         -5.1800    -3.2610     0.6830 ca         1 1DX      -0.134000
      8 OAD          2.5020    -1.3440    -4.8000 o          1 1DX      -0.842800
      9 CAE         -3.0670    -5.0470     0.5800 ca         1 1DX      -0.208000
     10 FAE          6.6340     3.9250     1.5130 f          1 1DX      -0.244300
     11 CAG          5.4460     1.3690    -0.1330 ca         1 1DX      -0.089500
     12 CAH          6.0330     1.6970     1.0810 ca         1 1DX      -0.211300
     13 CAI          7.1170     2.7250     1.1590 c3         1 1DX       0.718200
     14 CAJ          4.4150     0.4420    -0.1820 ca         1 1DX      -0.122500
     15 FAJ          7.7580     2.8900    -0.0010 f          1 1DX      -0.244300
     16 CAK          4.5540     0.1660     2.1950 ca         1 1DX      -0.122500
     17 FAK          8.0440     2.4050     2.0750 f          1 1DX      -0.244300
     18 CAN          1.8910    -1.2230     1.9330 ca         1 1DX      -0.109000
     19 CAO          2.7340    -2.0210    -0.1580 ca         1 1DX      -0.109000
     20 CAP          0.8400    -2.1200     1.8560 ca         1 1DX      -0.105000
     21 CAQ          1.6790    -2.9160    -0.2350 ca         1 1DX      -0.105000
     22 CAR         -1.3180     0.0140    -3.7530 ca         1 1DX      -0.142500
     23 CAS         -0.4590     0.6050    -1.6030 ca         1 1DX      -0.142500
     24 CAT         -0.0520    -0.4070    -4.1390 ca         1 1DX      -0.114500
     25 CAU          0.8060     0.2090    -2.0010 ca         1 1DX      -0.114500
     26 CAV         -5.0640     3.7130     0.8230 c3         1 1DX      -0.051400
     27 CAW         -3.9420     2.8650     0.2350 c3         1 1DX      -0.087400
     28 CAX         -4.5270     5.0260     1.3760 c3         1 1DX      -0.200400
     29 CBB         -4.4130     1.5190    -0.3010 c3         1 1DX       0.170800
     30 CBC         -3.5850    -0.7250    -0.7250 c3         1 1DX       0.180800
     31 CBD         -0.4280    -3.9290     0.6480 c3         1 1DX       0.196700
     32 CBE         -2.8710     1.1140    -2.0920 c3         1 1DX       0.225100
     33 CBG         -5.5450     5.9700     2.0160 c          1 1DX       0.925600
     34 CBH          2.4300    -0.7020    -3.7440 c          1 1DX       0.931200
     35 CBI          3.9500    -0.1700     0.9820 cp         1 1DX      -0.006000
     36 CBJ          2.8540    -1.1570     0.9270 cp         1 1DX      -0.034000
     37 CBK          0.7250    -2.9830     0.7710 ca         1 1DX      -0.100300
     38 CBL         -1.5350     0.5420    -2.4870 ca         1 1DX      -0.110300
     39 CBM          1.0360    -0.2940    -3.2800 ca         1 1DX      -0.145600
     40 CBN         -3.8870    -2.7670     0.6760 ca         1 1DX      -0.074300
     41 CBO         -2.8190    -3.6760     0.6120 ca         1 1DX       0.146100
     42 NBP         -3.3140     0.6980    -0.7750 n3         1 1DX      -0.728600
     43 CZD          5.5820     1.0890     2.2470 ca         1 1DX      -0.089500
     44 HAB         -4.5610    -6.5970     0.5920 ha         1 1DX       0.135000
     45 HAD         -6.0140    -2.5720     0.7430 ha         1 1DX       0.151000
     46 HAE         -2.2520    -5.7570     0.5230 ha         1 1DX       0.131000
     47 HAG          5.7710     1.8220    -1.0590 ha         1 1DX       0.140500
     48 HAJ          3.9640     0.2100    -1.1470 ha         1 1DX       0.177500
     49 HAK          4.2310    -0.3130     3.1110 ha         1 1DX       0.177500
     50 HAN          1.9260    -0.5440     2.7740 ha         1 1DX       0.151500
     51 HAO          3.4280    -1.9710    -0.9830 ha         1 1DX       0.151500
     52 HAP          0.0950    -2.1280     2.6420 ha         1 1DX       0.133500
     53 HAQ          1.5950    -3.5580    -1.1030 ha         1 1DX       0.133500
     54 HAR         -2.1420    -0.0570    -4.4540 ha         1 1DX       0.116000
     55 HAS         -0.6170     0.9780    -0.5960 ha         1 1DX       0.116000
     56 HAT          0.1030    -0.8110    -5.1310 ha         1 1DX       0.133500
     57 HAU          1.6250     0.2800    -1.2990 ha         1 1DX       0.133500
     58 HAV         -5.8140     3.9050     0.0480 hc         1 1DX       0.033200
     59 HAVA        -5.5790     3.1510     1.6090 hc         1 1DX       0.033200
     60 HAW         -3.4530     3.4390    -0.5580 hc         1 1DX       0.036700
     61 HAWA        -3.1740     2.6810     0.9910 hc         1 1DX       0.036700
     62 HAX         -3.7370     4.8160     2.1050 hc         1 1DX       0.017200
     63 HAXA        -4.0160     5.5780     0.5800 hc         1 1DX       0.017200
     64 HBA         -2.7060    -1.0500     1.2040 hc         1 1DX       0.062200
     65 HBAA        -4.4450    -0.8170     1.2770 hc         1 1DX       0.062200
     66 HBB         -4.9310     0.9980     0.5080 h1         1 1DX       0.019200
     67 HBBA        -5.1720     1.6770    -1.0880 h1         1 1DX       0.019200
     68 HBC         -2.7710    -1.2310    -1.2460 h1         1 1DX       0.033700
     69 HBCA        -4.5160    -0.9920    -1.2570 h1         1 1DX       0.033700
     70 HBD         -0.4850    -4.6030     1.5120 h1         1 1DX       0.033200
     71 HBDA        -0.3220    -4.5430    -0.2530 h1         1 1DX       0.033200
     72 HBE         -2.7640     2.2030    -2.0850 h1         1 1DX       0.029700
     73 HBEA        -3.6260     0.8910    -2.8660 h1         1 1DX       0.029700
     74 HZD          6.0320     1.3210     3.2040 ha         1 1DX       0.140500
     75 CBA         -3.6430    -1.2830     0.7000 c3         1 1DX      -0.030100
     76 OBF         -1.5970    -3.1280     0.5770 os         1 1DX      -0.303900
@<TRIPOS>BOND
     1     1     5 1   
     2     2    33 1   
     3     3     5 ar  
     4     3     9 ar  
     5     3    44 1   
     6     4    34 1   
     7     5     7 ar  
     8     6    33 1   
     9     7    40 ar  
    10     7    45 1   
    11     8    34 1   
    12     9    41 ar  
    13     9    46 1   
    14    10    13 1   
    15    11    12 ar  
    16    11    14 ar  
    17    11    47 1   
    18    12    13 1   
    19    12    43 ar  
    20    13    15 1   
    21    13    17 1   
    22    14    35 ar  
    23    14    48 1   
    24    16    35 ar  
    25    16    43 ar  
    26    16    49 1   
    27    18    20 ar  
    28    18    36 ar  
    29    18    50 1   
    30    19    21 ar  
    31    19    36 ar  
    32    19    51 1   
    33    20    37 ar  
    34    20    52 1   
    35    21    37 ar  
    36    21    53 1   
    37    22    24 ar  
    38    22    38 ar  
    39    22    54 1   
    40    23    25 ar  
    41    23    38 ar  
    42    23    55 1   
    43    24    39 ar  
    44    24    56 1   
    45    25    39 ar  
    46    25    57 1   
    47    26    27 1   
    48    26    28 1   
    49    26    58 1   
    50    26    59 1   
    51    27    29 1   
    52    27    60 1   
    53    27    61 1   
    54    28    33 1   
    55    28    62 1   
    56    28    63 1   
    57    29    42 1   
    58    29    66 1   
    59    29    67 1   
    60    30    42 1   
    61    30    68 1   
    62    30    69 1   
    63    30    75 1   
    64    31    37 1   
    65    31    70 1   
    66    31    71 1   
    67    31    76 1   
    68    32    38 1   
    69    32    42 1   
    70    32    72 1   
    71    32    73 1   
    72    34    39 1   
    73    35    36 1   
    74    40    41 ar  
    75    40    75 1   
    76    41    76 1   
    77    43    74 1   
    78    64    75 1   
    79    65    75 1   
@<TRIPOS>SUBSTRUCTURE
     1 1DX         1 TEMP              0 ****  ****    0 ROOT
