@<TRIPOS>MOLECULE
1DY
   55    58     1     0     0
SMALL
abcg2


@<TRIPOS>ATOM
      1 N1          -6.5890     1.3770    -0.6090 ns         1 1DY      -0.431400
      2 C1          -7.9060     0.9780    -0.5670 c          1 1DY       0.579600
      3 O1          -8.8060     1.7250    -0.9070 o          1 1DY      -0.532000
      4 C2          -8.0720    -0.3880    -0.0860 ca         1 1DY      -0.202600
      5 C3          -9.3450    -0.9560     0.0250 ca         1 1DY      -0.039000
      6 C4          -9.4850    -2.2470     0.4840 ca         1 1DY      -0.132000
      7 C5          -8.3500    -2.9870     0.8360 ca         1 1DY      -0.073000
      8 C6          -7.0900    -2.4380     0.7290 ca         1 1DY      -0.107000
      9 C7          -6.9310    -1.1250     0.2660 ca         1 1DY       0.188400
     10 N2          -5.6590    -0.6070     0.1760 nc         1 1DY      -0.642100
     11 C8          -5.5280     0.5980    -0.2460 cd         1 1DY       0.504900
     12 C9          -4.1870     1.2520    -0.3620 c3         1 1DY      -0.108700
     13 C10         -3.0380     0.3080    -0.0700 c3         1 1DY      -0.150400
     14 C11         -1.6910     0.9820    -0.2130 c          1 1DY       0.606100
     15 O2          -1.5440     2.0770    -0.7200 o          1 1DY      -0.575100
     16 N3          -0.6660     0.2230     0.2670 ns         1 1DY      -0.148000
     17 C12          0.7020     0.4750     0.2610 ca         1 1DY       0.005000
     18 C13          1.2900     1.6570    -0.1970 ca         1 1DY      -0.164500
     19 C14          2.6660     1.8040    -0.1440 ca         1 1DY      -0.040500
     20 C15          1.5280    -0.5350     0.7620 ca         1 1DY      -0.164500
     21 C16          2.8990    -0.3800     0.7970 ca         1 1DY      -0.040500
     22 C17          3.4950     0.7940     0.3360 ca         1 1DY      -0.181600
     23 C18          4.9630     1.0360     0.3700 c          1 1DY       0.622700
     24 O3           5.4250     2.1640     0.3680 o          1 1DY      -0.584100
     25 N4           5.7350    -0.0820     0.3960 ns         1 1DY      -0.145000
     26 C19          7.1370    -0.0910     0.4400 ca         1 1DY      -0.062000
     27 C20          7.8560     0.7230     1.3040 ca         1 1DY      -0.078000
     28 C21          9.2450     0.6750     1.3290 ca         1 1DY      -0.127000
     29 C22          9.9170    -0.2040     0.4980 ca         1 1DY      -0.088000
     30 C23          9.2120    -1.0390    -0.3610 ca         1 1DY      -0.180000
     31 C24          7.8240    -0.9830    -0.4020 ca         1 1DY       0.103100
     32 O4           7.0510    -1.7430    -1.2010 os         1 1DY      -0.355100
     33 C25          7.6730    -2.7010    -2.0340 c3         1 1DY       0.151900
     34 H1          -6.4080     2.3180    -0.9360 hn         1 1DY       0.332500
     35 H2         -10.2160    -0.3750    -0.2490 ha         1 1DY       0.137000
     36 H3         -10.4670    -2.6890     0.5740 ha         1 1DY       0.121000
     37 H4          -8.4640    -4.0010     1.1960 ha         1 1DY       0.118000
     38 H5          -6.2090    -3.0060     0.9990 ha         1 1DY       0.130000
     39 H6          -4.0940     1.6730    -1.3670 hc         1 1DY       0.078700
     40 H7          -4.1680     2.1050     0.3230 hc         1 1DY       0.078700
     41 H8          -3.1310    -0.1140     0.9330 hc         1 1DY       0.080200
     42 H9          -3.0620    -0.5440    -0.7550 hc         1 1DY       0.080200
     43 H10         -0.9310    -0.6650     0.6660 hn         1 1DY       0.153000
     44 H11          0.6930     2.4630    -0.5880 ha         1 1DY       0.132000
     45 H12          3.0990     2.7290    -0.4980 ha         1 1DY       0.127000
     46 H13          1.0910    -1.4530     1.1360 ha         1 1DY       0.132000
     47 H14          3.4900    -1.1840     1.2170 ha         1 1DY       0.127000
     48 H15          5.2910    -0.9610     0.1810 hn         1 1DY       0.163000
     49 H16          7.3320     1.3900     1.9740 ha         1 1DY       0.135000
     50 H17          9.7910     1.3170     2.0060 ha         1 1DY       0.118000
     51 H18         10.9980    -0.2540     0.5130 ha         1 1DY       0.113000
     52 H19          9.7580    -1.7210    -0.9980 ha         1 1DY       0.116000
     53 H20          6.8750    -3.2090    -2.5690 h1         1 1DY       0.041367
     54 H21          8.3430    -2.2340    -2.7600 h1         1 1DY       0.041367
     55 H22          8.2370    -3.4380    -1.4570 h1         1 1DY       0.041367
@<TRIPOS>BOND
     1     1     2 1   
     2     1    11 1   
     3     1    34 1   
     4     2     3 2   
     5     2     4 1   
     6     4     5 ar  
     7     4     9 ar  
     8     5     6 ar  
     9     5    35 1   
    10     6     7 ar  
    11     6    36 1   
    12     7     8 ar  
    13     7    37 1   
    14     8     9 ar  
    15     8    38 1   
    16     9    10 1   
    17    10    11 2   
    18    11    12 1   
    19    12    13 1   
    20    12    39 1   
    21    12    40 1   
    22    13    14 1   
    23    13    41 1   
    24    13    42 1   
    25    14    15 2   
    26    14    16 1   
    27    16    17 1   
    28    16    43 1   
    29    17    18 ar  
    30    17    20 ar  
    31    18    19 ar  
    32    18    44 1   
    33    19    22 ar  
    34    19    45 1   
    35    20    21 ar  
    36    20    46 1   
    37    21    22 ar  
    38    21    47 1   
    39    22    23 1   
    40    23    24 2   
    41    23    25 1   
    42    25    26 1   
    43    25    48 1   
    44    26    27 ar  
    45    26    31 ar  
    46    27    28 ar  
    47    27    49 1   
    48    28    29 ar  
    49    28    50 1   
    50    29    30 ar  
    51    29    51 1   
    52    30    31 ar  
    53    30    52 1   
    54    31    32 1   
    55    32    33 1   
    56    33    53 1   
    57    33    54 1   
    58    33    55 1   
@<TRIPOS>SUBSTRUCTURE
     1 1DY         1 TEMP              0 ****  ****    0 ROOT
