@<TRIPOS>MOLECULE
1DY
   55    58     1     0     0
SMALL
No Charge or Current Charge


@<TRIPOS>ATOM
      1 N1          -6.3560     1.1210    -0.1230 ns         1 1DY      -0.431400
      2 C1          -7.6150     0.6880    -0.3510 c          1 1DY       0.579600
      3 O1          -8.4780     1.4210    -0.8080 o          1 1DY      -0.532000
      4 C2          -7.8290    -0.7370     0.0030 ca         1 1DY      -0.202600
      5 C3          -9.0900    -1.3450    -0.1740 ca         1 1DY      -0.039000
      6 C4          -9.2740    -2.6950     0.1660 ca         1 1DY      -0.132000
      7 C5          -8.2010    -3.4360     0.6820 ca         1 1DY      -0.073000
      8 C6          -6.9470    -2.8250     0.8560 ca         1 1DY      -0.107000
      9 C7          -6.7420    -1.4730     0.5220 ca         1 1DY       0.188400
     10 N2          -5.4560    -0.9420     0.7280 nc         1 1DY      -0.642100
     11 C8          -5.3580     0.3430     0.3870 cd         1 1DY       0.504900
     12 C9          -4.0230     1.0270     0.5450 c3         1 1DY      -0.108700
     13 C10         -3.1600     0.9910    -0.7480 c3         1 1DY      -0.150400
     14 C11         -1.8040     1.6810    -0.5490 c          1 1DY       0.606100
     15 O2          -1.7190     2.9010    -0.4780 o          1 1DY      -0.575100
     16 N3          -0.7210     0.8120    -0.4970 ns         1 1DY      -0.148000
     17 C12          0.6740     1.0280    -0.3240 ca         1 1DY       0.005000
     18 C13          1.2450     2.2910    -0.0660 ca         1 1DY      -0.164500
     19 C14          2.6340     2.4270     0.0980 ca         1 1DY      -0.040500
     20 C15          1.5210    -0.0900    -0.4080 ca         1 1DY      -0.164500
     21 C16          2.9110     0.0390    -0.2460 ca         1 1DY      -0.040500
     22 C17          3.4900     1.3060     0.0100 ca         1 1DY      -0.181600
     23 C18          4.9860     1.4920     0.1910 c          1 1DY       0.622700
     24 O3           5.4620     2.6000     0.4130 o          1 1DY      -0.584100
     25 N4           5.7540     0.3380     0.0900 ns         1 1DY      -0.145000
     26 C19          7.1540     0.0870     0.1930 ca         1 1DY      -0.062000
     27 C20          8.1080     1.0990     0.4480 ca         1 1DY      -0.078000
     28 C21          9.4740     0.7800     0.5370 ca         1 1DY      -0.127000
     29 C22          9.9020    -0.5450     0.3750 ca         1 1DY      -0.088000
     30 C23          8.9650    -1.5590     0.1230 ca         1 1DY      -0.180000
     31 C24          7.5900    -1.2480     0.0310 ca         1 1DY       0.103100
     32 O4           6.6360    -2.2200    -0.2170 os         1 1DY      -0.355100
     33 C25          6.9750    -3.6070    -0.3980 c3         1 1DY       0.151900
     34 H1          -6.1740     2.0860    -0.3550 hn         1 1DY       0.332500
     35 H2          -9.9280    -0.7760    -0.5740 ha         1 1DY       0.137000
     36 H3         -10.2460    -3.1640     0.0300 ha         1 1DY       0.121000
     37 H4          -8.3380    -4.4820     0.9470 ha         1 1DY       0.118000
     38 H5          -6.1220    -3.4080     1.2560 ha         1 1DY       0.130000
     39 H6          -4.1740     2.0690     0.8550 hc         1 1DY       0.078700
     40 H7          -3.4640     0.5530     1.3610 hc         1 1DY       0.078700
     41 H8          -3.0090    -0.0560    -1.0360 hc         1 1DY       0.080200
     42 H9          -3.7000     1.5150    -1.5450 hc         1 1DY       0.080200
     43 H10         -0.9710    -0.1630    -0.5940 hn         1 1DY       0.153000
     44 H11          0.6320     3.1820     0.0180 ha         1 1DY       0.132000
     45 H12          3.0430     3.4160     0.2960 ha         1 1DY       0.127000
     46 H13          1.1010    -1.0740    -0.6040 ha         1 1DY       0.132000
     47 H14          3.5190    -0.8590    -0.3230 ha         1 1DY       0.127000
     48 H15          5.2180    -0.4980    -0.0960 hn         1 1DY       0.163000
     49 H16          7.8170     2.1360     0.5790 ha         1 1DY       0.135000
     50 H17         10.2010     1.5640     0.7330 ha         1 1DY       0.118000
     51 H18         10.9610    -0.7870     0.4460 ha         1 1DY       0.113000
     52 H19          9.3240    -2.5770     0.0010 ha         1 1DY       0.116000
     53 H20          6.0690    -4.1980    -0.5820 h1         1 1DY       0.041367
     54 H21          7.6450    -3.7360    -1.2570 h1         1 1DY       0.041367
     55 H22          7.4660    -4.0080     0.4980 h1         1 1DY       0.041367
@<TRIPOS>BOND
     1     1     2 1   
     2     1    11 1   
     3     1    34 1   
     4     2     3 2   
     5     2     4 1   
     6     4     5 ar  
     7     4     9 ar  
     8     5     6 ar  
     9     5    35 1   
    10     6     7 ar  
    11     6    36 1   
    12     7     8 ar  
    13     7    37 1   
    14     8     9 ar  
    15     8    38 1   
    16     9    10 1   
    17    10    11 2   
    18    11    12 1   
    19    12    13 1   
    20    12    39 1   
    21    12    40 1   
    22    13    14 1   
    23    13    41 1   
    24    13    42 1   
    25    14    15 2   
    26    14    16 1   
    27    16    17 1   
    28    16    43 1   
    29    17    18 ar  
    30    17    20 ar  
    31    18    19 ar  
    32    18    44 1   
    33    19    22 ar  
    34    19    45 1   
    35    20    21 ar  
    36    20    46 1   
    37    21    22 ar  
    38    21    47 1   
    39    22    23 1   
    40    23    24 2   
    41    23    25 1   
    42    25    26 1   
    43    25    48 1   
    44    26    27 ar  
    45    26    31 ar  
    46    27    28 ar  
    47    27    49 1   
    48    28    29 ar  
    49    28    50 1   
    50    29    30 ar  
    51    29    51 1   
    52    30    31 ar  
    53    30    52 1   
    54    31    32 1   
    55    32    33 1   
    56    33    53 1   
    57    33    54 1   
    58    33    55 1   
@<TRIPOS>SUBSTRUCTURE
     1 1DY         1 TEMP              0 ****  ****    0 ROOT
