@<TRIPOS>MOLECULE
1DZ
   34    36     1     0     0
SMALL
No Charge or Current Charge


@<TRIPOS>ATOM
      1 C01          0.6020     0.8750     0.0250 cc         1 1DZ      -0.168000
      2 N02          0.4940    -0.5030    -0.0980 na         1 1DZ       0.189000
      3 N03          1.6920    -1.1760    -0.1790 nc         1 1DZ      -0.481800
      4 C04          2.5870    -0.1890    -0.0520 cd         1 1DZ       0.203500
      5 C05          1.9500     1.0810     0.0760 cd         1 1DZ      -0.154000
      6 C06         -0.4080     1.9240     0.2010 ca         1 1DZ       0.016000
      7 C07         -0.7040    -1.1890    -0.3210 ca         1 1DZ       0.050800
      8 C08         -1.6310     1.6540     0.8520 ca         1 1DZ      -0.100500
      9 C09         -2.5920     2.6660     1.0160 ca         1 1DZ      -0.118500
     10 C10         -2.3410     3.9610     0.5360 ca         1 1DZ      -0.128000
     11 C11         -1.1250     4.2430    -0.1070 ca         1 1DZ      -0.118500
     12 C12         -0.1630     3.2300    -0.2710 ca         1 1DZ      -0.100500
     13 C13         -1.5780    -0.7860    -1.3510 ca         1 1DZ      -0.122000
     14 C14         -2.7840    -1.4740    -1.5660 ca         1 1DZ      -0.109000
     15 C15         -3.1210    -2.5710    -0.7560 ca         1 1DZ      -0.131000
     16 C16         -2.2560    -2.9860     0.2730 ca         1 1DZ      -0.077300
     17 C17         -1.0480    -2.2940     0.4840 ca         1 1DZ      -0.097000
     18 C18         -2.6190    -4.1760     1.1480 c3         1 1DZ      -0.041800
     19 C19          4.0920    -0.4040    -0.0490 c          1 1DZ       0.629500
     20 O20          4.8260     0.5710     0.0720 o          1 1DZ      -0.707000
     21 O21          4.5450    -1.5390    -0.1660 o          1 1DZ      -0.707000
     22 H051         2.4570     2.0310     0.2070 ha         1 1DZ       0.148000
     23 H081        -1.8370     0.6620     1.2450 ha         1 1DZ       0.122000
     24 H091        -3.5310     2.4460     1.5200 ha         1 1DZ       0.101500
     25 H101        -3.0850     4.7440     0.6630 ha         1 1DZ       0.098000
     26 H111        -0.9270     5.2450    -0.4800 ha         1 1DZ       0.101500
     27 H121         0.7700     3.4620    -0.7790 ha         1 1DZ       0.122000
     28 H131        -1.3220     0.0620    -1.9820 ha         1 1DZ       0.127000
     29 H141        -3.4550    -1.1580    -2.3610 ha         1 1DZ       0.103000
     30 H151        -4.0560    -3.0990    -0.9310 ha         1 1DZ       0.099000
     31 H171        -0.3740    -2.6110     1.2770 ha         1 1DZ       0.141000
     32 H181        -2.1980    -5.1030     0.7400 hc         1 1DZ       0.037367
     33 H183        -2.2360    -4.0530     2.1680 hc         1 1DZ       0.037367
     34 H182        -3.7060    -4.3050     1.2180 hc         1 1DZ       0.037367
@<TRIPOS>BOND
     1     1     2 1   
     2     1     5 2   
     3     1     6 1   
     4     2     3 1   
     5     2     7 1   
     6     3     4 2   
     7     4     5 1   
     8     4    19 1   
     9     5    22 1   
    10     6     8 ar  
    11     6    12 ar  
    12     7    13 ar  
    13     7    17 ar  
    14     8     9 ar  
    15     8    23 1   
    16     9    10 ar  
    17     9    24 1   
    18    10    11 ar  
    19    10    25 1   
    20    11    12 ar  
    21    11    26 1   
    22    12    27 1   
    23    13    14 ar  
    24    13    28 1   
    25    14    15 ar  
    26    14    29 1   
    27    15    16 ar  
    28    15    30 1   
    29    16    17 ar  
    30    16    18 1   
    31    17    31 1   
    32    18    32 1   
    33    18    33 1   
    34    18    34 1   
    35    19    20 1   
    36    19    21 1   
@<TRIPOS>SUBSTRUCTURE
     1 1DZ         1 TEMP              0 ****  ****    0 ROOT
