@<TRIPOS>MOLECULE
1DZ
   34    36     1     0     0
SMALL
abcg2


@<TRIPOS>ATOM
      1 C01          0.6580     0.9270     0.0710 cc         1 1DZ      -0.168000
      2 N02          0.4610    -0.4120    -0.0920 na         1 1DZ       0.189000
      3 N03          1.6060    -1.0940    -0.1060 nc         1 1DZ      -0.481800
      4 C04          2.5640    -0.1980     0.0450 cd         1 1DZ       0.203500
      5 C05          2.0190     1.0950     0.1560 cd         1 1DZ      -0.154000
      6 C06         -0.4090     1.9230     0.1970 ca         1 1DZ       0.016000
      7 C07         -0.7530    -1.1030    -0.3160 ca         1 1DZ       0.050800
      8 C08         -1.5270     1.7050     1.0030 ca         1 1DZ      -0.100500
      9 C09         -2.5000     2.6830     1.1320 ca         1 1DZ      -0.118500
     10 C10         -2.3690     3.8950     0.4640 ca         1 1DZ      -0.128000
     11 C11         -1.2550     4.1230    -0.3320 ca         1 1DZ      -0.118500
     12 C12         -0.2810     3.1440    -0.4660 ca         1 1DZ      -0.100500
     13 C13         -1.6460    -0.6480    -1.2770 ca         1 1DZ      -0.122000
     14 C14         -2.8300    -1.3410    -1.4710 ca         1 1DZ      -0.109000
     15 C15         -3.1090    -2.4810    -0.7290 ca         1 1DZ      -0.131000
     16 C16         -2.2080    -2.9510     0.2220 ca         1 1DZ      -0.077300
     17 C17         -1.0260    -2.2430     0.4250 ca         1 1DZ      -0.097000
     18 C18         -2.4880    -4.1990     1.0070 c3         1 1DZ      -0.041800
     19 C19          4.0250    -0.5760     0.0830 c          1 1DZ       0.629500
     20 O20          4.8140     0.3770     0.2250 o          1 1DZ      -0.707000
     21 O21          4.3010    -1.7830    -0.0310 o          1 1DZ      -0.707000
     22 H051         2.5450     2.0220     0.3160 ha         1 1DZ       0.148000
     23 H081        -1.6330     0.7730     1.5450 ha         1 1DZ       0.122000
     24 H091        -3.3600     2.5030     1.7640 ha         1 1DZ       0.101500
     25 H101        -3.1290     4.6580     0.5680 ha         1 1DZ       0.098000
     26 H111        -1.1440     5.0640    -0.8560 ha         1 1DZ       0.101500
     27 H121         0.5790     3.3230    -1.0980 ha         1 1DZ       0.122000
     28 H131        -1.4230     0.2310    -1.8680 ha         1 1DZ       0.127000
     29 H141        -3.5360    -0.9940    -2.2140 ha         1 1DZ       0.103000
     30 H151        -4.0400    -3.0110    -0.8930 ha         1 1DZ       0.099000
     31 H171        -0.3140    -2.5790     1.1690 ha         1 1DZ       0.141000
     32 H181        -1.9520    -5.0520     0.5870 hc         1 1DZ       0.037367
     33 H183        -2.1730    -4.0990     2.0450 hc         1 1DZ       0.037367
     34 H182        -3.5500    -4.4440     0.9980 hc         1 1DZ       0.037367
@<TRIPOS>BOND
     1     1     2 1   
     2     1     5 2   
     3     1     6 1   
     4     2     3 1   
     5     2     7 1   
     6     3     4 2   
     7     4     5 1   
     8     4    19 1   
     9     5    22 1   
    10     6     8 ar  
    11     6    12 ar  
    12     7    13 ar  
    13     7    17 ar  
    14     8     9 ar  
    15     8    23 1   
    16     9    10 ar  
    17     9    24 1   
    18    10    11 ar  
    19    10    25 1   
    20    11    12 ar  
    21    11    26 1   
    22    12    27 1   
    23    13    14 ar  
    24    13    28 1   
    25    14    15 ar  
    26    14    29 1   
    27    15    16 ar  
    28    15    30 1   
    29    16    17 ar  
    30    16    18 1   
    31    17    31 1   
    32    18    32 1   
    33    18    33 1   
    34    18    34 1   
    35    19    20 1   
    36    19    21 1   
@<TRIPOS>SUBSTRUCTURE
     1 1DZ         1 TEMP              0 ****  ****    0 ROOT
