@<TRIPOS>MOLECULE
1E0
   45    47     1     0     0
SMALL
No Charge or Current Charge


@<TRIPOS>ATOM
      1 N1           1.0900     0.8460    -0.8360 na         1 1E0       0.247000
      2 N2           1.5500     0.1760    -1.9460 nc         1 1E0      -0.494800
      3 C1           2.4320    -0.6650    -1.4070 cd         1 1E0       0.138500
      4 C2           2.5050    -0.5030     0.0080 cd         1 1E0       0.023600
      5 C3           1.6350     0.4790     0.3810 cc         1 1E0      -0.195000
      6 N3           3.3380    -1.2440     0.8360 ns         1 1E0      -0.397100
      7 C4           3.4850    -1.1690     2.1970 c          1 1E0       0.655100
      8 N4           4.3840    -2.0370     2.6890 nt         1 1E0      -0.603000
      9 O1           2.8830    -0.4060     2.9300 o          1 1E0      -0.642100
     10 C5           3.2370    -1.6510    -2.2120 c          1 1E0       0.548600
     11 N5           3.0150    -1.6430    -3.5480 nt         1 1E0      -0.586000
     12 O2           4.0530    -2.4330    -1.7420 o          1 1E0      -0.646100
     13 C6           0.1220     1.8410    -0.9720 ca         1 1E0       0.001800
     14 C7           0.5080     3.0880    -1.5020 ca         1 1E0      -0.086000
     15 C8          -0.4270     4.1250    -1.6410 ca         1 1E0      -0.119000
     16 C9          -1.7600     3.9250    -1.2510 ca         1 1E0      -0.073000
     17 C10         -1.2270     1.6310    -0.5810 ca         1 1E0       0.020000
     18 C11         -2.1630     2.6840    -0.7230 ca         1 1E0      -0.071000
     19 C12         -3.5040     2.4970    -0.3390 ca         1 1E0      -0.062000
     20 C13         -3.9270     1.2650     0.1840 ca         1 1E0      -0.176000
     21 C14         -3.0050     0.2070     0.3250 ca         1 1E0       0.155100
     22 C15         -1.6680     0.3940    -0.0560 ca         1 1E0      -0.144000
     23 O3          -3.3630    -1.0260     0.8290 os         1 1E0      -0.348100
     24 C16         -4.7050    -1.3230     1.2490 c3         1 1E0       0.165600
     25 C17         -4.7260    -2.7800     1.7490 c3         1 1E0      -0.082400
     26 C18         -6.1190    -3.2310     2.2340 c3         1 1E0      -0.090100
     27 H1           1.3670     0.9240     1.3290 h4         1 1E0       0.191000
     28 H2           3.9270    -1.9410     0.3950 hn         1 1E0       0.354500
     29 H4           4.8830    -2.6680     2.0820 hn         1 1E0       0.312500
     30 H3           4.5530    -2.0470     3.6830 hn         1 1E0       0.312500
     31 H5           2.3410    -0.9960    -3.9320 hn         1 1E0       0.325500
     32 H6           3.5230    -2.2790    -4.1430 hn         1 1E0       0.325500
     33 H7           1.5410     3.2530    -1.8040 ha         1 1E0       0.130000
     34 H8          -0.1190     5.0850    -2.0500 ha         1 1E0       0.122000
     35 H9          -2.4780     4.7350    -1.3610 ha         1 1E0       0.117000
     36 H10         -4.2220     3.3070    -0.4480 ha         1 1E0       0.115000
     37 H11         -4.9680     1.1510     0.4710 ha         1 1E0       0.120000
     38 H12         -0.9840    -0.4420     0.0580 ha         1 1E0       0.144000
     39 H14         -5.0150    -0.6520     2.0620 h1         1 1E0       0.033700
     40 H13         -5.4070    -1.2120     0.4120 h1         1 1E0       0.033700
     41 H15         -4.3960    -3.4430     0.9410 hc         1 1E0       0.056700
     42 H16         -4.0080    -2.8890     2.5710 hc         1 1E0       0.056700
     43 H18         -6.4620    -2.6040     3.0650 hc         1 1E0       0.036700
     44 H17         -6.8530    -3.1630     1.4220 hc         1 1E0       0.036700
     45 H19         -6.0850    -4.2710     2.5790 hc         1 1E0       0.036700
@<TRIPOS>BOND
     1     1     2 1   
     2     1     5 1   
     3     1    13 1   
     4     2     3 2   
     5     3     4 1   
     6     3    10 1   
     7     4     5 2   
     8     4     6 1   
     9     5    27 1   
    10     6     7 1   
    11     6    28 1   
    12     7     8 1   
    13     7     9 2   
    14     8    29 1   
    15     8    30 1   
    16    10    11 1   
    17    10    12 2   
    18    11    31 1   
    19    11    32 1   
    20    13    14 ar  
    21    13    17 ar  
    22    14    15 ar  
    23    14    33 1   
    24    15    16 ar  
    25    15    34 1   
    26    16    18 ar  
    27    16    35 1   
    28    17    18 ar  
    29    17    22 ar  
    30    18    19 ar  
    31    19    20 ar  
    32    19    36 1   
    33    20    21 ar  
    34    20    37 1   
    35    21    22 ar  
    36    21    23 1   
    37    22    38 1   
    38    23    24 1   
    39    24    25 1   
    40    24    39 1   
    41    24    40 1   
    42    25    26 1   
    43    25    41 1   
    44    25    42 1   
    45    26    43 1   
    46    26    44 1   
    47    26    45 1   
@<TRIPOS>SUBSTRUCTURE
     1 1E0         1 TEMP              0 ****  ****    0 ROOT
