@<TRIPOS>MOLECULE
1E0
   45    47     1     0     0
SMALL
bcc


@<TRIPOS>ATOM
      1 N1           1.0960     0.7920    -0.4320 na         1 1E0       0.196300
      2 N2           1.0320    -0.2660    -1.2080 nc         1 1E0      -0.494800
      3 C1           2.0710    -1.0160    -0.8760 cd         1 1E0       0.203800
      4 C2           2.8320    -0.4050     0.1470 cd         1 1E0      -0.041700
      5 C3           2.1650     0.7720     0.4100 cc         1 1E0      -0.162300
      6 N3           3.9740    -0.9410     0.7070 ns         1 1E0      -0.464100
      7 C4           4.7040    -0.3480     1.7000 c          1 1E0       0.789100
      8 N4           5.7720    -1.0740     2.1120 nt         1 1E0      -0.670000
      9 O1           4.3930     0.7290     2.1880 o          1 1E0      -0.642100
     10 C5           2.3300    -2.3130    -1.5270 c          1 1E0       0.615600
     11 N5           1.4480    -2.6810    -2.4610 nt         1 1E0      -0.653000
     12 O2           3.3070    -2.9880    -1.2060 o          1 1E0      -0.646100
     13 C6           0.1490     1.8390    -0.5470 ca         1 1E0       0.001800
     14 C7           0.6000     3.1010    -0.8230 ca         1 1E0      -0.104000
     15 C8          -0.3030     4.1760    -0.9300 ca         1 1E0      -0.137000
     16 C9          -1.6420     3.9560    -0.7700 ca         1 1E0      -0.091000
     17 C10         -1.2340     1.5690    -0.3500 ca         1 1E0       0.020000
     18 C11         -2.1330     2.6630    -0.4780 ca         1 1E0      -0.071000
     19 C12         -3.5100     2.4260    -0.2850 ca         1 1E0      -0.080000
     20 C13         -3.9880     1.1840     0.0310 ca         1 1E0      -0.194000
     21 C14         -3.0880     0.1020     0.1750 ca         1 1E0       0.155100
     22 C15         -1.7380     0.2980    -0.0160 ca         1 1E0      -0.162000
     23 O3          -3.4760    -1.1430     0.4940 os         1 1E0      -0.324900
     24 C16         -4.8500    -1.4130     0.7390 c3         1 1E0       0.142400
     25 C17         -4.9920    -2.8820     1.0740 c3         1 1E0      -0.082400
     26 C18         -6.4420    -3.2390     1.3730 c3         1 1E0      -0.090100
     27 H1           2.3420     1.5640     1.1140 h4         1 1E0       0.209000
     28 H2           4.2400    -1.8460     0.3440 hn         1 1E0       0.354500
     29 H4           6.1350    -1.8290     1.5540 hn         1 1E0       0.312500
     30 H3           6.4380    -0.6170     2.7110 hn         1 1E0       0.312500
     31 H5           0.6540    -2.1070    -2.6870 hn         1 1E0       0.325500
     32 H6           1.5470    -3.5640    -2.9350 hn         1 1E0       0.325500
     33 H7           1.6580     3.2710    -0.9730 ha         1 1E0       0.148000
     34 H8           0.0720     5.1650    -1.1530 ha         1 1E0       0.140000
     35 H9          -2.3470     4.7740    -0.8600 ha         1 1E0       0.135000
     36 H10         -4.2020     3.2520    -0.3860 ha         1 1E0       0.133000
     37 H11         -5.0510     1.0510     0.1700 ha         1 1E0       0.138000
     38 H12         -1.0720    -0.5470     0.0910 ha         1 1E0       0.162000
     39 H14         -5.2160    -0.7980     1.5700 h1         1 1E0       0.033700
     40 H13         -5.4510    -1.1670    -0.1440 h1         1 1E0       0.033700
     41 H15         -4.6260    -3.4840     0.2390 hc         1 1E0       0.056700
     42 H16         -4.3680    -3.1200     1.9390 hc         1 1E0       0.056700
     43 H18         -6.8290    -2.6560     2.2110 hc         1 1E0       0.036700
     44 H17         -7.0860    -3.0510     0.5130 hc         1 1E0       0.036700
     45 H19         -6.5370    -4.2930     1.6320 hc         1 1E0       0.036700
@<TRIPOS>BOND
     1     1     2 1   
     2     1     5 1   
     3     1    13 1   
     4     2     3 2   
     5     3     4 1   
     6     3    10 1   
     7     4     5 2   
     8     4     6 1   
     9     5    27 1   
    10     6     7 1   
    11     6    28 1   
    12     7     8 1   
    13     7     9 2   
    14     8    29 1   
    15     8    30 1   
    16    10    11 1   
    17    10    12 2   
    18    11    31 1   
    19    11    32 1   
    20    13    14 ar  
    21    13    17 ar  
    22    14    15 ar  
    23    14    33 1   
    24    15    16 ar  
    25    15    34 1   
    26    16    18 ar  
    27    16    35 1   
    28    17    18 ar  
    29    17    22 ar  
    30    18    19 ar  
    31    19    20 ar  
    32    19    36 1   
    33    20    21 ar  
    34    20    37 1   
    35    21    22 ar  
    36    21    23 1   
    37    22    38 1   
    38    23    24 1   
    39    24    25 1   
    40    24    39 1   
    41    24    40 1   
    42    25    26 1   
    43    25    41 1   
    44    25    42 1   
    45    26    43 1   
    46    26    44 1   
    47    26    45 1   
@<TRIPOS>SUBSTRUCTURE
     1 1E0         1 TEMP              0 ****  ****    0 ROOT
