@<TRIPOS>MOLECULE
1E1
   25    25     1     0     0
SMALL
No Charge or Current Charge


@<TRIPOS>ATOM
      1 N26          0.2250    -0.0800     1.5000 n8         1 1E1      -0.991200
      2 C27          0.0610     0.2580     0.0690 c3         1 1E1       0.146500
      3 C28          1.3580    -0.0930    -0.7070 c3         1 1E1      -0.082400
      4 C29          2.6010     0.6530    -0.2180 cx         1 1E1      -0.133700
      5 C30          3.9830     0.1830    -0.6060 cx         1 1E1      -0.131900
      6 C31          3.5190     0.0610     0.8270 cx         1 1E1      -0.131900
      7 O32         -1.2050    -1.8570    -0.2760 oh         1 1E1      -0.660000
      8 C33         -1.2050    -0.4260    -0.5500 c3         1 1E1       0.097300
      9 C36         -2.5340     0.2470    -0.0790 c          1 1E1       0.589100
     10 H32          0.1650    -1.1020     1.5800 hn         1 1E1       0.402000
     11 H33         -0.0610     1.3480    -0.0010 h1         1 1E1       0.048700
     12 H34          1.5260    -1.1770    -0.6670 hc         1 1E1       0.056700
     13 H35          1.2040     0.1490    -1.7660 hc         1 1E1       0.056700
     14 H36          2.4540     1.7310    -0.1890 hc         1 1E1       0.073700
     15 H37          4.0690    -0.7310    -1.1890 hc         1 1E1       0.071950
     16 H38          4.7300     0.9400    -0.8350 hc         1 1E1       0.071950
     17 H39          3.9560     0.7360     1.5600 hc         1 1E1       0.071950
     18 H40          3.3020    -0.9370     1.2010 hc         1 1E1       0.071950
     19 H41         -2.0320    -2.0290     0.2340 ho         1 1E1       0.479000
     20 H42         -1.1700    -0.2610    -1.6350 h1         1 1E1       0.063700
     21 H43         -3.5660     2.0140    -0.0840 hn         1 1E1       0.316000
     22 H44         -2.0020     2.0740    -0.8700 hn         1 1E1       0.316000
     23 H2           1.1970     0.1200     1.7590 hn         1 1E1       0.402000
     24 O34         -3.4130    -0.3680     0.5090 o          1 1E1      -0.610100
     25 N35         -2.7130     1.5580    -0.3710 nt         1 1E1      -0.593000
@<TRIPOS>BOND
     1     1     2 1   
     2     1    10 1   
     3     1    23 1   
     4     2     3 1   
     5     2     8 1   
     6     2    11 1   
     7     3     4 1   
     8     3    12 1   
     9     3    13 1   
    10     4     5 1   
    11     4     6 1   
    12     4    14 1   
    13     5     6 1   
    14     5    15 1   
    15     5    16 1   
    16     6    17 1   
    17     6    18 1   
    18     7     8 1   
    19     7    19 1   
    20     8     9 1   
    21     8    20 1   
    22     9    24 2   
    23     9    25 1   
    24    21    25 1   
    25    22    25 1   
@<TRIPOS>SUBSTRUCTURE
     1 1E1         1 TEMP              0 ****  ****    0 ROOT
