@<TRIPOS>MOLECULE
1E1
   25    25     1     0     0
SMALL
abcg2


@<TRIPOS>ATOM
      1 N26          0.0910     0.0690     1.3800 n8         1 1E1      -0.991200
      2 C27          0.0930     0.3200    -0.0520 c3         1 1E1       0.146500
      3 C28          1.3660    -0.1100    -0.7910 c3         1 1E1      -0.082400
      4 C29          2.5950     0.5990    -0.2820 cx         1 1E1      -0.133700
      5 C30          3.9560     0.0200    -0.5190 cx         1 1E1      -0.131900
      6 C31          3.3810     0.0400     0.8660 cx         1 1E1      -0.131900
      7 O32         -1.0980    -1.7320    -0.5630 oh         1 1E1      -0.660000
      8 C33         -1.1470    -0.3370    -0.6720 c3         1 1E1       0.097300
      9 C36         -2.4110     0.1690     0.0210 c          1 1E1       0.589100
     10 H32          0.2820    -0.9130     1.5470 hn         1 1E1       0.402000
     11 H33         -0.0130     1.4020    -0.1910 h1         1 1E1       0.048700
     12 H34          1.5000    -1.1930    -0.6980 hc         1 1E1       0.056700
     13 H35          1.2440     0.1000    -1.8590 hc         1 1E1       0.056700
     14 H36          2.5350     1.6830    -0.3270 hc         1 1E1       0.073700
     15 H37          4.0190    -0.9340    -1.0300 hc         1 1E1       0.071950
     16 H38          4.7710     0.6970    -0.7420 hc         1 1E1       0.071950
     17 H39          3.8070     0.7260     1.5860 hc         1 1E1       0.071950
     18 H40          3.0580    -0.9020     1.2930 hc         1 1E1       0.071950
     19 H41         -1.7640    -1.9750     0.0980 ho         1 1E1       0.479000
     20 H42         -1.1940    -0.0600    -1.7330 h1         1 1E1       0.063700
     21 H43         -3.5180     1.8630     0.2780 hn         1 1E1       0.316000
     22 H44         -2.1620     2.0510    -0.7590 hn         1 1E1       0.316000
     23 H2           0.8570     0.5710     1.8090 hn         1 1E1       0.402000
     24 O34         -3.0880    -0.5990     0.6940 o          1 1E1      -0.610100
     25 N35         -2.7090     1.4560    -0.1610 nt         1 1E1      -0.593000
@<TRIPOS>BOND
     1     1     2 1   
     2     1    10 1   
     3     1    23 1   
     4     2     3 1   
     5     2     8 1   
     6     2    11 1   
     7     3     4 1   
     8     3    12 1   
     9     3    13 1   
    10     4     5 1   
    11     4     6 1   
    12     4    14 1   
    13     5     6 1   
    14     5    15 1   
    15     5    16 1   
    16     6    17 1   
    17     6    18 1   
    18     7     8 1   
    19     7    19 1   
    20     8     9 1   
    21     8    20 1   
    22     9    24 2   
    23     9    25 1   
    24    21    25 1   
    25    22    25 1   
@<TRIPOS>SUBSTRUCTURE
     1 1E1         1 TEMP              0 ****  ****    0 ROOT
