@<TRIPOS>MOLECULE
1E2
   42    42     1     0     0
SMALL
bcc


@<TRIPOS>ATOM
      1 C2           1.6130    -2.5580    -0.0860 c6         1 1E2       0.091100
      2 C4           3.5720    -0.9840    -0.2580 c6         1 1E2       0.118100
      3 C6           2.9930     1.4690    -0.5250 c3         1 1E2      -0.235600
      4 C5           2.5920     0.1420     0.0820 c6         1 1E2       0.201100
      5 O10         -6.0680     1.3280     1.0340 o          1 1E2      -0.538000
      6 C23         -6.1700     0.3280     0.3680 c          1 1E2       0.640100
      7 C24         -7.4580    -0.2420    -0.1460 c3         1 1E2      -0.156100
      8 C46         -3.8280     0.0390     0.3740 c3         1 1E2       0.100400
      9 C45         -2.8180    -0.9260    -0.2230 c3         1 1E2       0.148100
     10 O47         -2.9100    -1.0020    -1.6230 oh         1 1E2      -0.582800
     11 C44         -1.4270    -0.5370     0.2500 c3         1 1E2       0.097400
     12 O6          -0.5100    -1.5120    -0.2050 os         1 1E2      -0.405600
     13 C1           0.7780    -1.3260     0.2480 c6         1 1E2       0.318900
     14 O2           1.1700    -3.7000     0.6020 oh         1 1E2      -0.612800
     15 C3           3.0560    -2.2950     0.3320 c6         1 1E2       0.107100
     16 O3           3.9220    -3.3200    -0.0930 oh         1 1E2      -0.609800
     17 O4           4.8300    -0.6450     0.2690 oh         1 1E2      -0.581800
     18 O5           1.3190    -0.2100    -0.4040 os         1 1E2      -0.407600
     19 S            1.8990     2.8380    -0.0690 s6         1 1E2       1.214800
     20 O9           0.6400     2.6650    -0.8150 o          1 1E2      -0.695533
     21 O7           1.7340     2.7360     1.3950 o          1 1E2      -0.695533
     22 O8           2.6430     4.0460    -0.4840 o          1 1E2      -0.695533
     23 H1           1.5790    -2.7060    -1.1760 h1         1 1E2       0.063700
     24 H2           3.6140    -1.0860    -1.3540 h1         1 1E2       0.050700
     25 H3           3.9890     1.7390    -0.1740 h1         1 1E2       0.085700
     26 H4           3.0230     1.4150    -1.6160 h1         1 1E2       0.085700
     27 H5           2.5620     0.2530     1.1770 h1         1 1E2       0.063700
     28 H6          -8.3060     0.2680     0.3030 hc         1 1E2       0.065033
     29 H7          -7.5100    -0.1180    -1.2290 hc         1 1E2       0.065033
     30 H8          -7.5260    -1.3100     0.0600 hc         1 1E2       0.065033
     31 H11         -3.0380    -1.9330     0.1460 h1         1 1E2       0.075700
     32 H12         -2.6830    -0.1440    -1.9990 ho         1 1E2       0.413000
     33 H13         -1.1580     0.4590    -0.1250 h1         1 1E2       0.063200
     34 H14         -1.4130    -0.4860     1.3470 h1         1 1E2       0.063200
     35 H15          0.7870    -1.1560     1.3420 h2         1 1E2       0.033700
     36 H16          0.3310    -3.9800     0.2230 ho         1 1E2       0.418000
     37 H17          3.0810    -2.1950     1.4290 h1         1 1E2       0.049700
     38 H18          3.7170    -4.1190     0.4020 ho         1 1E2       0.412000
     39 H19          5.4530    -1.3420     0.0390 ho         1 1E2       0.404000
     40 H9          -3.6500     1.0580     0.0150 h1         1 1E2       0.060700
     41 O48         -5.1270    -0.4020    -0.0140 os         1 1E2      -0.415900
     42 H10         -3.7410     0.0490     1.4630 h1         1 1E2       0.060700
@<TRIPOS>BOND
     1     1    13 1   
     2     1    14 1   
     3     1    15 1   
     4     1    23 1   
     5     2     4 1   
     6     2    15 1   
     7     2    17 1   
     8     2    24 1   
     9     3     4 1   
    10     3    19 1   
    11     3    25 1   
    12     3    26 1   
    13     4    18 1   
    14     4    27 1   
    15     5     6 2   
    16     6     7 1   
    17     6    41 1   
    18     7    28 1   
    19     7    29 1   
    20     7    30 1   
    21     8     9 1   
    22     8    40 1   
    23     8    41 1   
    24     8    42 1   
    25     9    10 1   
    26     9    11 1   
    27     9    31 1   
    28    10    32 1   
    29    11    12 1   
    30    11    33 1   
    31    11    34 1   
    32    12    13 1   
    33    13    18 1   
    34    13    35 1   
    35    14    36 1   
    36    15    16 1   
    37    15    37 1   
    38    16    38 1   
    39    17    39 1   
    40    19    20 1   
    41    19    21 1   
    42    19    22 1   
@<TRIPOS>SUBSTRUCTURE
     1 1E2         1 TEMP              0 ****  ****    0 ROOT
