@<TRIPOS>MOLECULE
1E2
   42    42     1     0     0
SMALL
No Charge or Current Charge


@<TRIPOS>ATOM
      1 C2           1.6910    -2.5480    -0.1650 c6         1 1E2       0.114300
      2 C4           3.6020    -0.8720    -0.3950 c6         1 1E2       0.141300
      3 C6           2.8690     1.6110    -0.5790 c3         1 1E2      -0.346400
      4 C5           2.6030     0.2390     0.0820 c6         1 1E2       0.224300
      5 O10         -6.2720     1.6200     0.4420 o          1 1E2      -0.489000
      6 C23         -6.3530     0.4540     0.0800 c          1 1E2       0.591100
      7 C24         -7.6660    -0.2310    -0.2780 c3         1 1E2      -0.156100
      8 C46         -3.9710     0.1110     0.2580 c3         1 1E2       0.123600
      9 C45         -2.9270    -1.0130     0.0230 c3         1 1E2       0.171300
     10 O47         -2.8540    -1.3720    -1.3720 oh         1 1E2      -0.705000
     11 C44         -1.5110    -0.6070     0.5010 c3         1 1E2       0.120600
     12 O6          -0.5710    -1.5800    -0.0070 os         1 1E2      -0.452000
     13 C1           0.8090    -1.3590     0.3350 c6         1 1E2       0.365300
     14 O2           1.2740    -3.8230     0.3850 oh         1 1E2      -0.735000
     15 C3           3.1720    -2.2490     0.1980 c6         1 1E2       0.130300
     16 O3           4.0260    -3.3040    -0.2790 oh         1 1E2      -0.672000
     17 O4           4.9640    -0.5920    -0.0160 oh         1 1E2      -0.704000
     18 O5           1.2580    -0.1400    -0.2840 os         1 1E2      -0.454000
     19 S            2.2400     3.0360     0.3110 s6         1 1E2       1.325600
     20 O9           0.7800     2.8660     0.3030 o          1 1E2      -0.695533
     21 O7           2.8600     2.9220     1.6390 o          1 1E2      -0.695533
     22 O8           2.7220     4.1730    -0.4860 o          1 1E2      -0.695533
     23 H1           1.6070    -2.5760    -1.2630 h1         1 1E2       0.063700
     24 H2           3.5320    -0.9360    -1.4910 h1         1 1E2       0.050700
     25 H3           3.9470     1.7810    -0.6460 h1         1 1E2       0.085700
     26 H4           2.4370     1.6450    -1.5830 h1         1 1E2       0.085700
     27 H5           2.6700     0.3360     1.1770 h1         1 1E2       0.063700
     28 H6          -8.5300     0.4340    -0.1770 hc         1 1E2       0.065033
     29 H7          -7.5840    -0.6450    -1.2880 hc         1 1E2       0.065033
     30 H8          -7.7720    -1.1330     0.3350 hc         1 1E2       0.065033
     31 H11         -3.2330    -1.8860     0.6170 h1         1 1E2       0.075700
     32 H12         -1.9300    -1.7020    -1.4850 ho         1 1E2       0.512000
     33 H13         -1.2730     0.3970     0.1230 h1         1 1E2       0.063200
     34 H14         -1.4900    -0.5720     1.5990 h1         1 1E2       0.063200
     35 H15          0.8990    -1.2710     1.4280 h2         1 1E2       0.033700
     36 H16          0.2910    -3.8520     0.2960 ho         1 1E2       0.517000
     37 H17          3.2430    -2.1870     1.2950 h1         1 1E2       0.049700
     38 H18          3.5030    -4.1270    -0.1400 ho         1 1E2       0.451000
     39 H19          5.4270    -1.4610    -0.0910 ho         1 1E2       0.503000
     40 H9          -3.7260     0.9740    -0.3770 h1         1 1E2       0.060700
     41 O48         -5.2880    -0.3980    -0.0460 os         1 1E2      -0.439100
     42 H10         -3.9190     0.4360     1.3060 h1         1 1E2       0.060700
@<TRIPOS>BOND
     1     1    13 1   
     2     1    14 1   
     3     1    15 1   
     4     1    23 1   
     5     2     4 1   
     6     2    15 1   
     7     2    17 1   
     8     2    24 1   
     9     3     4 1   
    10     3    19 1   
    11     3    25 1   
    12     3    26 1   
    13     4    18 1   
    14     4    27 1   
    15     5     6 2   
    16     6     7 1   
    17     6    41 1   
    18     7    28 1   
    19     7    29 1   
    20     7    30 1   
    21     8     9 1   
    22     8    40 1   
    23     8    41 1   
    24     8    42 1   
    25     9    10 1   
    26     9    11 1   
    27     9    31 1   
    28    10    32 1   
    29    11    12 1   
    30    11    33 1   
    31    11    34 1   
    32    12    13 1   
    33    13    18 1   
    34    13    35 1   
    35    14    36 1   
    36    15    16 1   
    37    15    37 1   
    38    16    38 1   
    39    17    39 1   
    40    19    20 1   
    41    19    21 1   
    42    19    22 1   
@<TRIPOS>SUBSTRUCTURE
     1 1E2         1 TEMP              0 ****  ****    0 ROOT
