@<TRIPOS>MOLECULE
1E3
   32    31     1     0     0
SMALL
bcc


@<TRIPOS>ATOM
      1 O          -39.0070    23.4070    20.5090 o          1 1E3      -0.837800
      2 C          -38.3560    22.7700    21.3630 c          1 1E3       0.930600
      3 CA         -38.3870    23.3190    22.8140 c3         1 1E3       0.023500
      4 N          -39.5570    24.1660    23.0100 n8         1 1E3      -0.894800
      5 CB         -38.3430    22.2110    23.8630 c3         1 1E3      -0.049400
      6 CAJ        -38.3200    22.7390    25.2930 c3         1 1E3      -0.078400
      7 CAI        -38.2010    21.6530    26.3600 c3         1 1E3      -0.069400
      8 CAH        -36.8520    20.9390    26.3650 c3         1 1E3      -0.075400
      9 CAG        -36.6200    20.0610    27.5900 c3         1 1E3      -0.071400
     10 CAF        -37.5750    18.8800    27.7050 c3         1 1E3      -0.080400
     11 CAE        -37.2610    17.9920    28.8990 c3         1 1E3       0.146800
     12 NAA        -38.1950    16.8770    28.9840 n8         1 1E3      -0.883800
     13 OXT        -37.6530    21.7620    21.1560 o          1 1E3      -0.837800
     14 H1         -37.4490    23.8960    22.9230 h1         1 1E3      -0.008300
     15 H2         -39.3640    24.8740    23.7060 hn         1 1E3       0.325300
     16 H3         -39.7300    24.6510    22.1390 hn         1 1E3       0.325300
     17 H5         -39.2150    21.5590    23.7380 hc         1 1E3       0.045200
     18 H6         -37.4640    21.5920    23.6800 hc         1 1E3       0.045200
     19 H7         -37.4860    23.4430    25.4080 hc         1 1E3       0.026700
     20 H8         -39.2310    23.3150    25.4780 hc         1 1E3       0.026700
     21 H9         -38.3590    22.1070    27.3450 hc         1 1E3       0.023700
     22 H10        -39.0130    20.9300    26.2280 hc         1 1E3       0.023700
     23 H11        -36.7410    20.3330    25.4610 hc         1 1E3       0.046200
     24 H12        -36.0600    21.6940    26.3200 hc         1 1E3       0.046200
     25 H13        -35.5920    19.6830    27.5670 hc         1 1E3       0.024700
     26 H14        -36.6940    20.6770    28.4940 hc         1 1E3       0.024700
     27 H15        -38.6060    19.2400    27.7920 hc         1 1E3       0.050700
     28 H16        -37.5340    18.2800    26.7910 hc         1 1E3       0.050700
     29 H17        -36.2530    17.5850    28.7850 h1         1 1E3       0.020200
     30 H18        -37.2380    18.6140    29.8060 h1         1 1E3       0.020200
     31 H19        -37.9540    16.2940    29.7750 hn         1 1E3       0.330300
     32 H20        -39.1210    17.2350    29.1830 hn         1 1E3       0.330300
@<TRIPOS>BOND
     1     1     2 1   
     2     2     3 1   
     3     2    13 1   
     4     3     4 1   
     5     3     5 1   
     6     3    14 1   
     7     4    15 1   
     8     4    16 1   
     9     5     6 1   
    10     5    17 1   
    11     5    18 1   
    12     6     7 1   
    13     6    19 1   
    14     6    20 1   
    15     7     8 1   
    16     7    21 1   
    17     7    22 1   
    18     8     9 1   
    19     8    23 1   
    20     8    24 1   
    21     9    10 1   
    22     9    25 1   
    23     9    26 1   
    24    10    11 1   
    25    10    27 1   
    26    10    28 1   
    27    11    12 1   
    28    11    29 1   
    29    11    30 1   
    30    12    31 1   
    31    12    32 1   
@<TRIPOS>SUBSTRUCTURE
     1 1E3         1 TEMP              0 ****  ****    0 ROOT
