@<TRIPOS>MOLECULE
1E4
   80    83     1     0     0
SMALL
No Charge or Current Charge


@<TRIPOS>ATOM
      1 C1           5.7100     1.1040     0.1680 ca         1 1E4      -0.103000
      2 C2           4.7630     0.1080     0.4930 ca         1 1E4       0.168100
      3 C3           3.3870     0.4190     0.5350 ca         1 1E4      -0.284000
      4 C4           2.9480     1.7290     0.2510 ca         1 1E4       0.182100
      5 C5           3.8930     2.7210    -0.0750 ca         1 1E4       0.048000
      6 C6           5.2620     2.4140    -0.1170 ca         1 1E4      -0.022000
      7 O9           1.6100     2.0780     0.2820 os         1 1E4      -0.318100
      8 C10          0.5690     1.1340     0.6030 c3         1 1E4       0.127600
      9 C11         -0.7900     1.8810     0.5490 c3         1 1E4       0.139300
     10 C14         -2.0110     0.9170     0.6970 c3         1 1E4       0.108300
     11 C15         -4.5980     0.6860     0.4740 c3         1 1E4       0.139300
     12 C16         -5.9700     1.4070     0.5590 c3         1 1E4       0.131600
     13 O17         -6.9950     0.4680     0.1730 os         1 1E4      -0.332100
     14 C20         -8.3330     0.8060     0.1550 ca         1 1E4       0.153100
     15 C21         -9.2550    -0.1850    -0.2180 ca         1 1E4      -0.132000
     16 C22        -10.6550     0.0670    -0.2610 cp         1 1E4      -0.045500
     17 C23        -11.0820     1.3780     0.0840 ca         1 1E4      -0.186000
     18 C24        -10.1610     2.3680     0.4560 ca         1 1E4       0.191000
     19 C25         -8.7900     2.0920     0.4960 ca         1 1E4      -0.263000
     20 C29        -11.6360    -1.0100    -0.6620 cp         1 1E4       0.341500
     21 F30        -10.6020     3.6030     0.7750 f          1 1E4      -0.194000
     22 C31        -13.0090    -0.9590    -0.3110 ca         1 1E4      -0.168000
     23 C32        -13.8790    -1.9870    -0.7070 ca         1 1E4      -0.069000
     24 C33        -13.3550    -3.0640    -1.4520 ca         1 1E4      -0.162600
     25 C34        -11.9830    -3.0510    -1.7550 ca         1 1E4       0.347900
     26 N35        -11.1470    -2.0560    -1.3690 nb         1 1E4      -0.698000
     27 C39        -14.2160    -4.2070    -1.9170 c          1 1E4       0.717600
     28 C40         -3.3890     1.6510     0.6960 c3         1 1E4       0.109300
     29 Cl4          3.3760     4.3700    -0.4400 cl         1 1E4      -0.184000
     30 O42          5.2310    -1.1640     0.7670 os         1 1E4      -0.334100
     31 C43          4.3580    -2.2570     1.1040 c3         1 1E4       0.148900
     32 N47          7.0870     0.7290     0.1420 ns         1 1E4      -0.156000
     33 C48          8.2540     1.4380    -0.1150 c          1 1E4       0.615100
     34 C49          9.5270     0.5890    -0.0220 c3         1 1E4      -0.046400
     35 O50          8.2920     2.6310    -0.3940 o          1 1E4      -0.575100
     36 S51          9.6920    -0.6100    -1.4390 ss         1 1E4      -0.354300
     37 C54         11.2210    -1.4780    -1.1080 ca         1 1E4       0.421300
     38 C55         11.6660    -2.4530    -2.0140 ca         1 1E4      -0.175000
     39 C56         12.8640    -3.1360    -1.7560 ca         1 1E4      -0.050000
     40 C57         13.5820    -2.8140    -0.5850 ca         1 1E4      -0.176600
     41 C58         13.0570    -1.8230     0.2640 ca         1 1E4       0.353900
     42 N59         11.9000    -1.1630     0.0130 nb         1 1E4      -0.728000
     43 C63         14.8740    -3.4970    -0.2320 c          1 1E4       0.718600
     44 O64         15.3070    -4.3510    -0.9920 o          1 1E4      -0.716500
     45 O65        -13.6960    -5.1080    -2.5580 o          1 1E4      -0.713000
     46 O66         15.4440    -3.1740     0.8000 o          1 1E4      -0.716500
     47 O67        -15.4050    -4.1910    -1.6350 o          1 1E4      -0.713000
     48 O71         -0.8770     2.6140    -0.6910 oh         1 1E4      -0.687000
     49 O74         -3.5310     2.3360     1.9650 oh         1 1E4      -0.708000
     50 O75         -1.9200     0.1980     1.9400 oh         1 1E4      -0.707000
     51 O77         -4.4900     0.0340    -0.8090 oh         1 1E4      -0.688000
     52 H1           2.6650    -0.3490     0.7870 ha         1 1E4       0.123000
     53 H2           5.9540     3.2080    -0.3730 ha         1 1E4       0.147000
     54 H3           0.5600     0.3070    -0.1190 h1         1 1E4       0.046200
     55 H4           0.7190     0.7190     1.6080 h1         1 1E4       0.046200
     56 H5          -0.8080     2.5820     1.3960 h1         1 1E4       0.096700
     57 H6          -1.9800     0.2180    -0.1520 h1         1 1E4       0.087700
     58 H7          -4.5800    -0.0670     1.2750 h1         1 1E4       0.097700
     59 H8          -6.1360     1.7590     1.5850 h1         1 1E4       0.042700
     60 H9          -5.9700     2.2760    -0.1130 h1         1 1E4       0.042700
     61 H10         -8.8750    -1.1710    -0.4710 ha         1 1E4       0.158000
     62 H11        -12.1340     1.6440     0.0520 ha         1 1E4       0.133000
     63 H12         -8.1070     2.8830     0.7890 ha         1 1E4       0.123000
     64 H13        -13.4000    -0.1360     0.2780 ha         1 1E4       0.099000
     65 H14        -14.9330    -1.9480    -0.4360 ha         1 1E4       0.133000
     66 H15        -11.5210    -3.8570    -2.3250 h4         1 1E4       0.036100
     67 H16         -3.3970     2.3720    -0.1340 h1         1 1E4       0.086700
     68 H17          3.6520    -2.4590     0.2890 h1         1 1E4       0.043033
     69 H18          4.9430    -3.1690     1.2810 h1         1 1E4       0.043033
     70 H19          3.7910    -2.0360     2.0170 h1         1 1E4       0.043033
     71 H20          7.2400    -0.2510     0.3460 hn         1 1E4       0.163000
     72 H21         10.3890     1.2660    -0.0100 h1         1 1E4       0.092200
     73 H22          9.5020     0.0370     0.9250 h1         1 1E4       0.092200
     74 H23         11.0860    -2.6740    -2.9050 ha         1 1E4       0.109000
     75 H24         13.2230    -3.8950    -2.4500 ha         1 1E4       0.133000
     76 H25         13.5700    -1.5340     1.1810 h4         1 1E4       0.032100
     77 H28          0.0300     2.9620    -0.8590 ho         1 1E4       0.498000
     78 H29         -3.5210     3.3060     1.7850 ho         1 1E4       0.501000
     79 H30         -2.4730     0.7450     2.5530 ho         1 1E4       0.501000
     80 H31         -5.3950    -0.3020    -1.0130 ho         1 1E4       0.496000
@<TRIPOS>BOND
     1     1     2 ar  
     2     1     6 ar  
     3     1    32 1   
     4     2     3 ar  
     5     2    30 1   
     6     3     4 ar  
     7     3    52 1   
     8     4     5 ar  
     9     4     7 1   
    10     5     6 ar  
    11     5    29 1   
    12     6    53 1   
    13     7     8 1   
    14     8     9 1   
    15     8    54 1   
    16     8    55 1   
    17     9    10 1   
    18     9    48 1   
    19     9    56 1   
    20    10    28 1   
    21    10    50 1   
    22    10    57 1   
    23    11    12 1   
    24    11    28 1   
    25    11    51 1   
    26    11    58 1   
    27    12    13 1   
    28    12    59 1   
    29    12    60 1   
    30    13    14 1   
    31    14    15 ar  
    32    14    19 ar  
    33    15    16 ar  
    34    15    61 1   
    35    16    17 ar  
    36    16    20 1   
    37    17    18 ar  
    38    17    62 1   
    39    18    19 ar  
    40    18    21 1   
    41    19    63 1   
    42    20    22 ar  
    43    20    26 ar  
    44    22    23 ar  
    45    22    64 1   
    46    23    24 ar  
    47    23    65 1   
    48    24    25 ar  
    49    24    27 1   
    50    25    26 ar  
    51    25    66 1   
    52    27    45 1   
    53    27    47 1   
    54    28    49 1   
    55    28    67 1   
    56    30    31 1   
    57    31    68 1   
    58    31    69 1   
    59    31    70 1   
    60    32    33 1   
    61    32    71 1   
    62    33    34 1   
    63    33    35 2   
    64    34    36 1   
    65    34    72 1   
    66    34    73 1   
    67    36    37 1   
    68    37    38 ar  
    69    37    42 ar  
    70    38    39 ar  
    71    38    74 1   
    72    39    40 ar  
    73    39    75 1   
    74    40    41 ar  
    75    40    43 1   
    76    41    42 ar  
    77    41    76 1   
    78    43    44 1   
    79    43    46 1   
    80    48    77 1   
    81    49    78 1   
    82    50    79 1   
    83    51    80 1   
@<TRIPOS>SUBSTRUCTURE
     1 1E4         1 TEMP              0 ****  ****    0 ROOT
