@<TRIPOS>MOLECULE
1E4
   80    83     1     0     0
SMALL
bcc


@<TRIPOS>ATOM
      1 C1           5.4660     0.4600     0.5710 ca         1 1E4      -0.010400
      2 C2           4.4460    -0.4970     0.5340 ca         1 1E4       0.168100
      3 C3           3.1140    -0.0930     0.5020 ca         1 1E4      -0.302000
      4 C4           2.7850     1.2610     0.4830 ca         1 1E4       0.182100
      5 C5           3.8140     2.2050     0.5080 ca         1 1E4      -0.043600
      6 C6           5.1340     1.8050     0.5600 ca         1 1E4      -0.040000
      7 O9           1.5360     1.7310     0.4440 os         1 1E4      -0.294900
      8 C10          0.4540     0.8170     0.3990 c3         1 1E4       0.104400
      9 C11         -0.8310     1.6310     0.3490 c3         1 1E4       0.116100
     10 C14         -2.0540     0.6960     0.3680 c3         1 1E4       0.085100
     11 C15         -4.5840     0.5440     0.1300 c3         1 1E4       0.116100
     12 C16         -5.8620     1.3560    -0.0090 c3         1 1E4       0.108400
     13 O17         -6.9470     0.4470    -0.0450 os         1 1E4      -0.308900
     14 C20         -8.1930     0.9260    -0.1820 ca         1 1E4       0.153100
     15 C21         -9.2160    -0.0220    -0.2130 ca         1 1E4      -0.150000
     16 C22        -10.5420     0.3680    -0.3420 cp         1 1E4      -0.045500
     17 C23        -10.8560     1.7260    -0.4540 ca         1 1E4      -0.204000
     18 C24         -9.8240     2.6350    -0.4260 ca         1 1E4       0.155900
     19 C25         -8.4940     2.2820    -0.2900 ca         1 1E4      -0.281000
     20 C29        -11.6090    -0.6590    -0.3630 cp         1 1E4       0.406800
     21 F30        -10.1140     3.9410    -0.5450 f          1 1E4      -0.158900
     22 C31        -12.9330    -0.3500    -0.0580 ca         1 1E4      -0.251300
     23 C32        -13.8830    -1.3560    -0.0980 ca         1 1E4      -0.087000
     24 C33        -13.5080    -2.6500    -0.4360 ca         1 1E4      -0.227900
     25 C34        -12.1590    -2.8530    -0.7100 ca         1 1E4       0.413200
     26 N35        -11.2400    -1.9000    -0.6760 nb         1 1E4      -0.698000
     27 C39        -14.5160    -3.7880    -0.5000 c          1 1E4       0.928200
     28 C40         -3.3700     1.4780     0.2760 c3         1 1E4       0.086100
     29 CL4          3.4180     3.8880     0.4880 cl         1 1E4      -0.092400
     30 O42          4.8380    -1.7780     0.5400 os         1 1E4      -0.310900
     31 C43          3.8570    -2.7990     0.5350 c3         1 1E4       0.125700
     32 N47          6.8120     0.0450     0.6200 ns         1 1E4      -0.482100
     33 C48          7.6890     0.2580    -0.3840 c          1 1E4       0.682100
     34 C49          9.0430    -0.3790    -0.1510 c3         1 1E4      -0.094300
     35 O50          7.4330     0.9010    -1.3840 o          1 1E4      -0.575100
     36 S51         10.1520     0.1900    -1.4560 ss         1 1E4      -0.306400
     37 C54         11.6480    -0.6220    -1.0030 ca         1 1E4       0.486600
     38 C55         12.7690    -0.3960    -1.8040 ca         1 1E4      -0.258300
     39 C56         13.9480    -1.0260    -1.4620 ca         1 1E4      -0.068000
     40 C57         13.9970    -1.8620    -0.3470 ca         1 1E4      -0.241900
     41 C58         12.8190    -2.0100     0.3700 ca         1 1E4       0.419200
     42 N59         11.6710    -1.4100     0.0580 nb         1 1E4      -0.728000
     43 C63         15.2740    -2.5750     0.0630 c          1 1E4       0.929200
     44 O64         16.2770    -2.3600    -0.6420 o          1 1E4      -0.821800
     45 O65        -14.0720    -4.9020    -0.8340 o          1 1E4      -0.818300
     46 O66         15.2030    -3.3090     1.0670 o          1 1E4      -0.821800
     47 O67        -15.6920    -3.4970    -0.2130 o          1 1E4      -0.818300
     48 O71         -0.8550     2.4930    -0.7600 oh         1 1E4      -0.564800
     49 O74         -3.5300     2.3520     1.3740 oh         1 1E4      -0.585800
     50 O75         -2.0330    -0.1540     1.4940 oh         1 1E4      -0.584800
     51 O77         -4.4230    -0.3510    -0.9440 oh         1 1E4      -0.565800
     52 H1           2.3280    -0.8330     0.4840 ha         1 1E4       0.141000
     53 H2           5.9190     2.5480     0.6030 ha         1 1E4       0.165000
     54 H3           0.5270     0.1770    -0.4910 h1         1 1E4       0.046200
     55 H4           0.4610     0.1700     1.2800 h1         1 1E4       0.046200
     56 H5          -0.8670     2.2790     1.2320 h1         1 1E4       0.096700
     57 H6          -1.9880     0.0370    -0.5040 h1         1 1E4       0.087700
     58 H7          -4.6600    -0.0790     1.0280 h1         1 1E4       0.097700
     59 H8          -5.9710     2.0510     0.8280 h1         1 1E4       0.042700
     60 H9          -5.8270     1.9500    -0.9330 h1         1 1E4       0.042700
     61 H10         -8.9680    -1.0720    -0.1290 ha         1 1E4       0.176000
     62 H11        -11.8720     2.0730    -0.5850 ha         1 1E4       0.151000
     63 H12         -7.7390     3.0550    -0.2740 ha         1 1E4       0.141000
     64 H13        -13.2240     0.6520     0.2230 ha         1 1E4       0.117000
     65 H14        -14.9150    -1.1340     0.1390 ha         1 1E4       0.151000
     66 H15        -11.8090    -3.8450    -0.9730 h4         1 1E4       0.036100
     67 H16         -3.3240     2.1190    -0.6100 h1         1 1E4       0.086700
     68 H17          3.2400    -2.7660    -0.3660 h1         1 1E4       0.043033
     69 H18          4.3980    -3.7410     0.5520 h1         1 1E4       0.043033
     70 H19          3.2120    -2.7480     1.4150 h1         1 1E4       0.043033
     71 H20          7.0930    -0.5540     1.3820 hn         1 1E4       0.329500
     72 H21          9.4330    -0.1090     0.8310 h1         1 1E4       0.092200
     73 H22          8.9510    -1.4660    -0.1760 h1         1 1E4       0.092200
     74 H23         12.7130     0.2560    -2.6670 ha         1 1E4       0.127000
     75 H24         14.8370    -0.8720    -2.0600 ha         1 1E4       0.151000
     76 H25         12.7950    -2.6470     1.2460 h4         1 1E4       0.032100
     77 H28         -0.8000     1.9680    -1.5670 ho         1 1E4       0.399000
     78 H29         -3.7340     1.8360     2.1620 ho         1 1E4       0.402000
     79 H30         -1.9030     0.3720     2.2910 ho         1 1E4       0.402000
     80 H31         -4.3730     0.1510    -1.7650 ho         1 1E4       0.397000
@<TRIPOS>BOND
     1     1     2 ar  
     2     1     6 ar  
     3     1    32 1   
     4     2     3 ar  
     5     2    30 1   
     6     3     4 ar  
     7     3    52 1   
     8     4     5 ar  
     9     4     7 1   
    10     5     6 ar  
    11     5    29 1   
    12     6    53 1   
    13     7     8 1   
    14     8     9 1   
    15     8    54 1   
    16     8    55 1   
    17     9    10 1   
    18     9    48 1   
    19     9    56 1   
    20    10    28 1   
    21    10    50 1   
    22    10    57 1   
    23    11    12 1   
    24    11    28 1   
    25    11    51 1   
    26    11    58 1   
    27    12    13 1   
    28    12    59 1   
    29    12    60 1   
    30    13    14 1   
    31    14    15 ar  
    32    14    19 ar  
    33    15    16 ar  
    34    15    61 1   
    35    16    17 ar  
    36    16    20 1   
    37    17    18 ar  
    38    17    62 1   
    39    18    19 ar  
    40    18    21 1   
    41    19    63 1   
    42    20    22 ar  
    43    20    26 ar  
    44    22    23 ar  
    45    22    64 1   
    46    23    24 ar  
    47    23    65 1   
    48    24    25 ar  
    49    24    27 1   
    50    25    26 ar  
    51    25    66 1   
    52    27    45 1   
    53    27    47 1   
    54    28    49 1   
    55    28    67 1   
    56    30    31 1   
    57    31    68 1   
    58    31    69 1   
    59    31    70 1   
    60    32    33 1   
    61    32    71 1   
    62    33    34 1   
    63    33    35 2   
    64    34    36 1   
    65    34    72 1   
    66    34    73 1   
    67    36    37 1   
    68    37    38 ar  
    69    37    42 ar  
    70    38    39 ar  
    71    38    74 1   
    72    39    40 ar  
    73    39    75 1   
    74    40    41 ar  
    75    40    43 1   
    76    41    42 ar  
    77    41    76 1   
    78    43    44 1   
    79    43    46 1   
    80    48    77 1   
    81    49    78 1   
    82    50    79 1   
    83    51    80 1   
@<TRIPOS>SUBSTRUCTURE
     1 1E4         1 TEMP              0 ****  ****    0 ROOT
