@<TRIPOS>MOLECULE
1E5
   29    30     1     0     0
SMALL
No Charge or Current Charge


@<TRIPOS>ATOM
      1 C1          -0.2060     0.8360    -0.0690 cp         1 1E5      -0.069500
      2 C2           0.1820     2.1980    -0.1920 ca         1 1E5      -0.216000
      3 C3           1.5340     2.5700    -0.2160 ca         1 1E5       0.180000
      4 C4           2.5430     1.6070    -0.1210 ca         1 1E5      -0.271000
      5 C5           2.1960     0.2480    -0.0030 ca         1 1E5       0.182100
      6 C6           0.8410    -0.1230     0.0190 ca         1 1E5      -0.144000
      7 O7           3.1420    -0.7520     0.0930 os         1 1E5      -0.292100
      8 C8           4.5640    -0.4760     0.0800 c3         1 1E5       0.005600
      9 C9           5.4400    -1.7580     0.2020 c          1 1E5       0.728000
     10 O12          4.9000    -2.8550     0.2960 o          1 1E5      -0.718000
     11 O13          6.6560    -1.6150     0.1990 o          1 1E5      -0.718000
     12 C17         -1.6590     0.4210    -0.0420 cp         1 1E5       0.369500
     13 N18         -1.9360    -0.8700    -0.3460 nb         1 1E5      -0.695000
     14 C19         -3.2230    -1.2950    -0.3390 ca         1 1E5       0.350900
     15 C20         -4.3080    -0.4610    -0.0210 ca         1 1E5      -0.180600
     16 C21         -4.0370     0.8830     0.3090 ca         1 1E5      -0.072000
     17 C22         -2.7030     1.3190     0.2980 ca         1 1E5      -0.179000
     18 C23         -5.7070    -1.0140    -0.0360 c          1 1E5       0.719600
     19 O24         -5.8700    -2.1880    -0.3310 o          1 1E5      -0.725000
     20 O25         -6.6310    -0.2660     0.2480 o          1 1E5      -0.725000
     21 F31          1.8660     3.8730    -0.3370 f          1 1E5      -0.211000
     22 H1          -0.5650     2.9800    -0.2860 ha         1 1E5       0.114000
     23 H2           3.5790     1.9300    -0.1430 ha         1 1E5       0.128000
     24 H3           0.6020    -1.1790     0.1160 ha         1 1E5       0.159000
     25 H4           4.8410     0.0280    -0.8550 h1         1 1E5       0.014700
     26 H5           4.8260     0.1860     0.9160 h1         1 1E5       0.014700
     27 H7          -3.3700    -2.3430    -0.5980 h4         1 1E5       0.031100
     28 H8          -4.8370     1.5730     0.5710 ha         1 1E5       0.123000
     29 H9          -2.4830     2.3470     0.5670 ha         1 1E5       0.096000
@<TRIPOS>BOND
     1     1     2 ar  
     2     1     6 ar  
     3     1    12 1   
     4     2     3 ar  
     5     2    22 1   
     6     3     4 ar  
     7     3    21 1   
     8     4     5 ar  
     9     4    23 1   
    10     5     6 ar  
    11     5     7 1   
    12     6    24 1   
    13     7     8 1   
    14     8     9 1   
    15     8    25 1   
    16     8    26 1   
    17     9    10 1   
    18     9    11 1   
    19    12    13 ar  
    20    12    17 ar  
    21    13    14 ar  
    22    14    15 ar  
    23    14    27 1   
    24    15    16 ar  
    25    15    18 1   
    26    16    17 ar  
    27    16    28 1   
    28    17    29 1   
    29    18    19 1   
    30    18    20 1   
@<TRIPOS>SUBSTRUCTURE
     1 1E5         1 TEMP              0 ****  ****    0 ROOT
