@<TRIPOS>MOLECULE
1E5
   29    30     1     0     0
SMALL
bcc


@<TRIPOS>ATOM
      1 C1          -0.1750     0.8530    -0.0030 cp         1 1E5      -0.069500
      2 C2           0.1820     2.2060     0.0050 ca         1 1E5      -0.234000
      3 C3           1.5190     2.5260     0.0090 ca         1 1E5       0.144900
      4 C4           2.5350     1.5880     0.0060 ca         1 1E5      -0.289000
      5 C5           2.1730     0.2420    -0.0010 ca         1 1E5       0.182100
      6 C6           0.8230    -0.1140    -0.0070 ca         1 1E5      -0.162000
      7 O7           3.0510    -0.7680    -0.0030 os         1 1E5      -0.268900
      8 C8           4.4360    -0.4710     0.0090 c3         1 1E5      -0.017600
      9 C9           5.2700    -1.7630     0.0190 c          1 1E5       0.938600
     10 O12          4.6760    -2.8500     0.0140 o          1 1E5      -0.823300
     11 O13          6.4990    -1.5570     0.0320 o          1 1E5      -0.823300
     12 C17         -1.5980     0.4330    -0.0070 cp         1 1E5       0.434800
     13 N18         -1.8340    -0.8780    -0.0250 nb         1 1E5      -0.695000
     14 C19         -3.0840    -1.3130    -0.0290 ca         1 1E5       0.416200
     15 C20         -4.2010    -0.4820    -0.0160 ca         1 1E5      -0.245900
     16 C21         -3.9510     0.8830     0.0030 ca         1 1E5      -0.090000
     17 C22         -2.6480     1.3500     0.0080 ca         1 1E5      -0.262300
     18 C23         -5.6150    -1.0400    -0.0210 c          1 1E5       0.930200
     19 O24         -5.7210    -2.2810    -0.0200 o          1 1E5      -0.830300
     20 O25         -6.5370    -0.2040    -0.0270 o          1 1E5      -0.830300
     21 F31          1.8690     3.8230     0.0170 f          1 1E5      -0.175900
     22 H1          -0.5500     3.0010     0.0070 ha         1 1E5       0.132000
     23 H2           3.5640     1.9200     0.0100 ha         1 1E5       0.146000
     24 H3           0.5550    -1.1610    -0.0130 ha         1 1E5       0.177000
     25 H4           4.7090     0.1230    -0.8720 h1         1 1E5       0.014700
     26 H5           4.6930     0.1250     0.8920 h1         1 1E5       0.014700
     27 H7          -3.2150    -2.3890    -0.0430 h4         1 1E5       0.031100
     28 H8          -4.7750     1.5840     0.0130 ha         1 1E5       0.141000
     29 H9          -2.4720     2.4160     0.0230 ha         1 1E5       0.114000
@<TRIPOS>BOND
     1     1     2 ar  
     2     1     6 ar  
     3     1    12 1   
     4     2     3 ar  
     5     2    22 1   
     6     3     4 ar  
     7     3    21 1   
     8     4     5 ar  
     9     4    23 1   
    10     5     6 ar  
    11     5     7 1   
    12     6    24 1   
    13     7     8 1   
    14     8     9 1   
    15     8    25 1   
    16     8    26 1   
    17     9    10 1   
    18     9    11 1   
    19    12    13 ar  
    20    12    17 ar  
    21    13    14 ar  
    22    14    15 ar  
    23    14    27 1   
    24    15    16 ar  
    25    15    18 1   
    26    16    17 ar  
    27    16    28 1   
    28    17    29 1   
    29    18    19 1   
    30    18    20 1   
@<TRIPOS>SUBSTRUCTURE
     1 1E5         1 TEMP              0 ****  ****    0 ROOT
