@<TRIPOS>MOLECULE
1E6
   47    48     1     0     0
SMALL
abcg2


@<TRIPOS>ATOM
      1 C1          -8.9530    -0.9160     0.4860 c          1 1E6       0.718600
      2 C2          -7.5810    -0.3910     0.0940 ca         1 1E6      -0.175600
      3 O3          -8.9800    -1.7880     1.3750 o          1 1E6      -0.715000
      4 O4          -9.9240    -0.4240    -0.1170 o          1 1E6      -0.715000
      5 C5          -6.4260    -0.8470     0.7110 ca         1 1E6       0.352900
      6 N6          -5.1980    -0.4260     0.4100 nb         1 1E6      -0.729000
      7 C7          -5.0680     0.4840    -0.5390 ca         1 1E6       0.420300
      8 C8          -6.1570     1.0190    -1.2320 ca         1 1E6      -0.175000
      9 C9          -7.4190     0.5700    -0.9030 ca         1 1E6      -0.049000
     10 S10         -3.4640     1.0680    -0.9760 ss         1 1E6      -0.354300
     11 C11         -2.4300     0.0800     0.1250 c3         1 1E6      -0.046400
     12 C12         -0.9860     0.4500    -0.1320 c          1 1E6       0.615100
     13 N15         -0.1130    -0.1780     0.6840 ns         1 1E6      -0.158000
     14 C16          1.2850    -0.0550     0.5520 ca         1 1E6      -0.100000
     15 C17          1.9230     1.1390     0.8440 ca         1 1E6      -0.020000
     16 C18          3.2920     1.2590     0.7070 ca         1 1E6       0.049000
     17 C19          4.0620     0.1720     0.2880 ca         1 1E6       0.180100
     18 C20          3.4250    -1.0330    -0.0010 ca         1 1E6      -0.286000
     19 C21          2.0410    -1.1480     0.1170 ca         1 1E6       0.168100
     20 O22          5.3800     0.3660     0.1930 os         1 1E6      -0.313100
     21 C23          6.2130    -0.7150    -0.1860 c3         1 1E6       0.128600
     22 C24          7.6520    -0.2270    -0.1460 c3         1 1E6       0.166300
     23 C27          8.5690    -1.3150    -0.6830 c3         1 1E6       0.128600
     24 O28          9.8800    -0.8100    -0.7460 oh         1 1E6      -0.641000
     25 CL3          4.0720     2.7600     1.0640 cl         1 1E6      -0.181000
     26 O37          1.3590    -2.2660    -0.1610 os         1 1E6      -0.330100
     27 C38          2.0610    -3.4030    -0.6280 c3         1 1E6       0.149900
     28 O43         -0.6570     1.2460    -0.9920 o          1 1E6      -0.575100
     29 O44          8.0250     0.2130     1.1360 oh         1 1E6      -0.619000
     30 H2          -6.4900    -1.5930     1.4930 h4         1 1E6       0.032100
     31 H3          -6.0120     1.7630    -2.0050 ha         1 1E6       0.109000
     32 H4          -8.2830     0.9630    -1.4230 ha         1 1E6       0.134000
     33 H5          -2.6910     0.2670     1.1680 h1         1 1E6       0.093200
     34 H6          -2.5840    -0.9840    -0.0610 h1         1 1E6       0.093200
     35 H7          -0.4700    -0.8780     1.3190 hn         1 1E6       0.163000
     36 H8           1.3430     1.9820     1.1920 ha         1 1E6       0.148000
     37 H9           4.0060    -1.8810    -0.3310 ha         1 1E6       0.117000
     38 H10          6.0780    -1.5600     0.5010 h1         1 1E6       0.036200
     39 H11          5.9620    -1.0580    -1.1950 h1         1 1E6       0.036200
     40 H12          7.7360     0.6470    -0.8010 h1         1 1E6       0.104700
     41 H13          8.5070    -2.1980    -0.0300 h1         1 1E6       0.018700
     42 H14          8.2050    -1.6260    -1.6710 h1         1 1E6       0.018700
     43 H15         10.4570    -1.5180    -1.0450 ho         1 1E6       0.442000
     44 H16          2.7690    -3.7790     0.1150 h1         1 1E6       0.041367
     45 H17          1.3120    -4.1680    -0.8160 h1         1 1E6       0.041367
     46 H18          2.5950    -3.1960    -1.5580 h1         1 1E6       0.041367
     47 H19          8.0240    -0.5420     1.7340 ho         1 1E6       0.434000
@<TRIPOS>BOND
     1     1     2 1   
     2     1     3 1   
     3     1     4 1   
     4     2     5 ar  
     5     2     9 ar  
     6     5     6 ar  
     7     5    30 1   
     8     6     7 ar  
     9     7     8 ar  
    10     7    10 1   
    11     8     9 ar  
    12     8    31 1   
    13     9    32 1   
    14    10    11 1   
    15    11    12 1   
    16    11    33 1   
    17    11    34 1   
    18    12    13 1   
    19    12    28 2   
    20    13    14 1   
    21    13    35 1   
    22    14    15 ar  
    23    14    19 ar  
    24    15    16 ar  
    25    15    36 1   
    26    16    17 ar  
    27    16    25 1   
    28    17    18 ar  
    29    17    20 1   
    30    18    19 ar  
    31    18    37 1   
    32    19    26 1   
    33    20    21 1   
    34    21    22 1   
    35    21    38 1   
    36    21    39 1   
    37    22    23 1   
    38    22    29 1   
    39    22    40 1   
    40    23    24 1   
    41    23    41 1   
    42    23    42 1   
    43    24    43 1   
    44    26    27 1   
    45    27    44 1   
    46    27    45 1   
    47    27    46 1   
    48    29    47 1   
@<TRIPOS>SUBSTRUCTURE
     1 1E6         1 TEMP              0 ****  ****    0 ROOT
