@<TRIPOS>MOLECULE
1E6
   47    48     1     0     0
SMALL
No Charge or Current Charge


@<TRIPOS>ATOM
      1 C1          -8.8770    -1.2590     0.0430 c          1 1E6       0.718600
      2 C2          -7.4750    -0.7770    -0.2040 ca         1 1E6      -0.175600
      3 O3          -9.2410    -1.4360     1.1960 o          1 1E6      -0.715000
      4 O4          -9.6020    -1.4580    -0.9220 o          1 1E6      -0.715000
      5 C5          -6.6140    -0.5380     0.8820 ca         1 1E6       0.352900
      6 N6          -5.3380    -0.1020     0.7390 nb         1 1E6      -0.729000
      7 C7          -4.8760     0.1120    -0.5100 ca         1 1E6       0.420300
      8 C8          -5.6620    -0.0990    -1.6530 ca         1 1E6      -0.175000
      9 C9          -6.9830    -0.5500    -1.5080 ca         1 1E6      -0.049000
     10 S10         -3.1930     0.6850    -0.6990 ss         1 1E6      -0.354300
     11 C11         -2.5630     0.8490     1.0480 c3         1 1E6      -0.046400
     12 C12         -1.1080     1.3260     1.1070 c          1 1E6       0.615100
     13 N15         -0.1880     0.3730     0.6880 ns         1 1E6      -0.158000
     14 C16          1.2360     0.3800     0.5820 ca         1 1E6      -0.100000
     15 C17          2.0300     1.4940     0.9340 ca         1 1E6      -0.020000
     16 C18          3.4270     1.4410     0.8060 ca         1 1E6       0.049000
     17 C19          4.0560     0.2750     0.3260 ca         1 1E6       0.180100
     18 C20          3.2700    -0.8420    -0.0280 ca         1 1E6      -0.286000
     19 C21          1.8650    -0.7890     0.1000 ca         1 1E6       0.168100
     20 O22          5.4350     0.2670     0.2160 os         1 1E6      -0.313100
     21 C23          6.1680    -0.8770    -0.2660 c3         1 1E6       0.128600
     22 C24          7.6810    -0.5390    -0.2600 c3         1 1E6       0.166300
     23 C27          8.5250    -1.6550    -0.9280 c3         1 1E6       0.128600
     24 O28          9.9250    -1.3340    -0.8500 oh         1 1E6      -0.641000
     25 Cl3          4.3790     2.8580     1.2570 cl         1 1E6      -0.181000
     26 O37          1.0620    -1.8640    -0.2360 os         1 1E6      -0.330100
     27 C38          1.5930    -3.1030    -0.7390 c3         1 1E6       0.149900
     28 O43         -0.8120     2.4520     1.4900 o          1 1E6      -0.575100
     29 O44          8.1570    -0.3490     1.0870 oh         1 1E6      -0.619000
     30 H2          -6.9410    -0.6960     1.9090 h4         1 1E6       0.032100
     31 H3          -5.2480     0.0860    -2.6400 ha         1 1E6       0.109000
     32 H4          -7.6050    -0.7180    -2.3850 ha         1 1E6       0.134000
     33 H5          -3.1820     1.5690     1.5960 h1         1 1E6       0.093200
     34 H6          -2.6260    -0.1220     1.5540 h1         1 1E6       0.093200
     35 H7          -0.6080    -0.5000     0.3920 hn         1 1E6       0.163000
     36 H8           1.5890     2.4110     1.3080 ha         1 1E6       0.148000
     37 H9           3.7470    -1.7420    -0.3990 ha         1 1E6       0.117000
     38 H10          5.9860    -1.7540     0.3690 h1         1 1E6       0.036200
     39 H11          5.8590    -1.1200    -1.2910 h1         1 1E6       0.036200
     40 H12          7.8220     0.3790    -0.8480 h1         1 1E6       0.104700
     41 H13          8.3270    -2.6130    -0.4280 h1         1 1E6       0.018700
     42 H14          8.2180    -1.7570    -1.9780 h1         1 1E6       0.018700
     43 H15         10.4120    -2.0420    -1.3290 ho         1 1E6       0.442000
     44 H16          2.2710    -3.5620    -0.0080 h1         1 1E6       0.041367
     45 H17          0.7790    -3.8110    -0.9390 h1         1 1E6       0.041367
     46 H18          2.1400    -2.9400    -1.6770 h1         1 1E6       0.041367
     47 H19          9.1300    -0.4820     1.0290 ho         1 1E6       0.434000
@<TRIPOS>BOND
     1     1     2 1   
     2     1     3 1   
     3     1     4 1   
     4     2     5 ar  
     5     2     9 ar  
     6     5     6 ar  
     7     5    30 1   
     8     6     7 ar  
     9     7     8 ar  
    10     7    10 1   
    11     8     9 ar  
    12     8    31 1   
    13     9    32 1   
    14    10    11 1   
    15    11    12 1   
    16    11    33 1   
    17    11    34 1   
    18    12    13 1   
    19    12    28 2   
    20    13    14 1   
    21    13    35 1   
    22    14    15 ar  
    23    14    19 ar  
    24    15    16 ar  
    25    15    36 1   
    26    16    17 ar  
    27    16    25 1   
    28    17    18 ar  
    29    17    20 1   
    30    18    19 ar  
    31    18    37 1   
    32    19    26 1   
    33    20    21 1   
    34    21    22 1   
    35    21    38 1   
    36    21    39 1   
    37    22    23 1   
    38    22    29 1   
    39    22    40 1   
    40    23    24 1   
    41    23    41 1   
    42    23    42 1   
    43    24    43 1   
    44    26    27 1   
    45    27    44 1   
    46    27    45 1   
    47    27    46 1   
    48    29    47 1   
@<TRIPOS>SUBSTRUCTURE
     1 1E6         1 TEMP              0 ****  ****    0 ROOT
