@<TRIPOS>MOLECULE
1E7
   35    36     1     0     0
SMALL
No Charge or Current Charge


@<TRIPOS>ATOM
      1 C1           1.0410    -0.8470     0.0360 c          1 1E7       0.617100
      2 N2           1.9460     0.2050     0.0420 ns         1 1E7      -0.142000
      3 C3           3.3710     0.2570     0.0440 ca         1 1E7      -0.023000
      4 O4           1.3650    -2.0310     0.0300 o          1 1E7      -0.571100
      5 C6          -0.4280    -0.3840     0.0370 c3         1 1E7      -0.048400
      6 S7          -1.6880    -1.7650     0.0290 ss         1 1E7      -0.353300
      7 C10         -3.2660    -0.9230     0.0320 ca         1 1E7       0.419300
      8 C11         -4.4480    -1.6780     0.0270 ca         1 1E7      -0.174000
      9 C12         -5.6870    -1.0190     0.0300 ca         1 1E7      -0.048000
     10 C13         -5.6960     0.3920     0.0370 ca         1 1E7      -0.173600
     11 C14         -4.4610     1.0640     0.0410 ca         1 1E7       0.352900
     12 N15         -3.2650     0.4260     0.0390 nb         1 1E7      -0.730000
     13 C19         -6.9780     1.1780     0.0400 c          1 1E7       0.717600
     14 O20         -8.0350     0.5640     0.0360 o          1 1E7      -0.714500
     15 O21         -6.9160     2.3980     0.0460 o          1 1E7      -0.714500
     16 C23          4.1890    -0.8980     0.0380 ca         1 1E7      -0.108000
     17 C24          5.5870    -0.7750     0.0400 ca         1 1E7       0.114000
     18 C25          6.1870     0.4920     0.0470 ca         1 1E7      -0.105000
     19 C26          5.3880     1.6470     0.0520 ca         1 1E7      -0.167000
     20 C27          3.9790     1.5330     0.0510 ca         1 1E7       0.085100
     21 O31          3.1570     2.6470     0.0560 os         1 1E7      -0.356100
     22 Cl3          6.5920    -2.2180     0.0330 cl         1 1E7      -0.210000
     23 C33          3.6760     3.9900     0.0630 c3         1 1E7       0.155900
     24 H1           1.5160     1.1210     0.0470 hn         1 1E7       0.174000
     25 H2          -0.5790     0.2380     0.9280 h1         1 1E7       0.095200
     26 H3          -0.5780     0.2470    -0.8470 h1         1 1E7       0.095200
     27 H4          -4.4010    -2.7630     0.0220 ha         1 1E7       0.109000
     28 H5          -6.6130    -1.5920     0.0260 ha         1 1E7       0.135000
     29 H6          -4.4090     2.1530     0.0470 h4         1 1E7       0.033100
     30 H8           3.7660    -1.8960     0.0330 ha         1 1E7       0.169000
     31 H9           7.2710     0.5780     0.0480 ha         1 1E7       0.124000
     32 H10          5.8790     2.6160     0.0580 ha         1 1E7       0.116000
     33 H11          4.2870     4.1680     0.9570 h1         1 1E7       0.041700
     34 H12          4.2890     4.1770    -0.8280 h1         1 1E7       0.041700
     35 H13          2.8520     4.7150     0.0660 h1         1 1E7       0.041700
@<TRIPOS>BOND
     1     1     2 1   
     2     1     4 2   
     3     1     5 1   
     4     2     3 1   
     5     2    24 1   
     6     3    16 ar  
     7     3    20 ar  
     8     5     6 1   
     9     5    25 1   
    10     5    26 1   
    11     6     7 1   
    12     7     8 ar  
    13     7    12 ar  
    14     8     9 ar  
    15     8    27 1   
    16     9    10 ar  
    17     9    28 1   
    18    10    11 ar  
    19    10    13 1   
    20    11    12 ar  
    21    11    29 1   
    22    13    14 1   
    23    13    15 1   
    24    16    17 ar  
    25    16    30 1   
    26    17    18 ar  
    27    17    22 1   
    28    18    19 ar  
    29    18    31 1   
    30    19    20 ar  
    31    19    32 1   
    32    20    21 1   
    33    21    23 1   
    34    23    33 1   
    35    23    34 1   
    36    23    35 1   
@<TRIPOS>SUBSTRUCTURE
     1 1E7         1 TEMP              0 ****  ****    0 ROOT
