@<TRIPOS>MOLECULE
1E7
   35    36     1     0     0
SMALL
abcg2


@<TRIPOS>ATOM
      1 C1           0.9720    -0.6230     0.0360 c          1 1E7       0.617100
      2 N2           1.8730     0.3870     0.0040 ns         1 1E7      -0.142000
      3 C3           3.2680     0.3130     0.0060 ca         1 1E7      -0.023000
      4 O4           1.2500    -1.8060     0.0760 o          1 1E7      -0.571100
      5 C6          -0.4610    -0.1340     0.0130 c3         1 1E7      -0.048400
      6 S7          -1.5350    -1.5730     0.1980 ss         1 1E7      -0.353300
      7 C10         -3.1240    -0.8170     0.1160 ca         1 1E7       0.419300
      8 C11         -4.2370    -1.6550     0.2060 ca         1 1E7      -0.174000
      9 C12         -5.4890    -1.0780     0.1420 ca         1 1E7      -0.048000
     10 C13         -5.6150     0.3030    -0.0110 ca         1 1E7      -0.173600
     11 C14         -4.4380     1.0300    -0.0890 ca         1 1E7       0.352900
     12 N15         -3.2200     0.4930    -0.0270 nb         1 1E7      -0.730000
     13 C19         -6.9750     0.9740    -0.0870 c          1 1E7       0.717600
     14 O20         -7.9650     0.2250     0.0110 o          1 1E7      -0.714500
     15 O21         -6.9790     2.2100    -0.2380 o          1 1E7      -0.714500
     16 C23          3.9890    -0.8710    -0.0580 ca         1 1E7      -0.108000
     17 C24          5.3780    -0.8270    -0.0550 ca         1 1E7       0.114000
     18 C25          6.0650     0.3660     0.0070 ca         1 1E7      -0.105000
     19 C26          5.3450     1.5540     0.0690 ca         1 1E7      -0.167000
     20 C27          3.9600     1.5410     0.0710 ca         1 1E7       0.085100
     21 O31          3.1840     2.6380     0.1330 os         1 1E7      -0.356100
     22 CL3          6.2560    -2.3220    -0.1360 cl         1 1E7      -0.210000
     23 C33          3.8030     3.9090     0.2060 c3         1 1E7       0.155900
     24 H1           1.4960     1.3230    -0.0100 hn         1 1E7       0.174000
     25 H2          -0.6350     0.5840     0.8150 h1         1 1E7       0.095200
     26 H3          -0.6680     0.3760    -0.9300 h1         1 1E7       0.095200
     27 H4          -4.1190    -2.7240     0.3190 ha         1 1E7       0.109000
     28 H5          -6.3730    -1.6970     0.2070 ha         1 1E7       0.135000
     29 H6          -4.4740     2.1070    -0.2050 h4         1 1E7       0.033100
     30 H8           3.4810    -1.8190    -0.1110 ha         1 1E7       0.169000
     31 H9           7.1460     0.3910     0.0080 ha         1 1E7       0.124000
     32 H10          5.8910     2.4860     0.1190 ha         1 1E7       0.116000
     33 H11          4.4270     4.0010     1.0980 h1         1 1E7       0.041700
     34 H12          4.4120     4.1120    -0.6780 h1         1 1E7       0.041700
     35 H13          3.0010     4.6390     0.2590 h1         1 1E7       0.041700
@<TRIPOS>BOND
     1     1     2 1   
     2     1     4 2   
     3     1     5 1   
     4     2     3 1   
     5     2    24 1   
     6     3    16 ar  
     7     3    20 ar  
     8     5     6 1   
     9     5    25 1   
    10     5    26 1   
    11     6     7 1   
    12     7     8 ar  
    13     7    12 ar  
    14     8     9 ar  
    15     8    27 1   
    16     9    10 ar  
    17     9    28 1   
    18    10    11 ar  
    19    10    13 1   
    20    11    12 ar  
    21    11    29 1   
    22    13    14 1   
    23    13    15 1   
    24    16    17 ar  
    25    16    30 1   
    26    17    18 ar  
    27    17    22 1   
    28    18    19 ar  
    29    18    31 1   
    30    19    20 ar  
    31    19    32 1   
    32    20    21 1   
    33    21    23 1   
    34    23    33 1   
    35    23    34 1   
    36    23    35 1   
@<TRIPOS>SUBSTRUCTURE
     1 1E7         1 TEMP              0 ****  ****    0 ROOT
