@<TRIPOS>MOLECULE
1E8
   57    61     1     0     0
SMALL
abcg2


@<TRIPOS>ATOM
      1 N1           0.5470     4.0890    -0.2540 nb         1 1E8      -0.313000
      2 C2           1.8440     3.9030    -0.4920 ca         1 1E8       0.197900
      3 N3           2.5070     2.7680    -0.5810 nb         1 1E8      -0.228000
      4 C4           1.7080     1.7070    -0.4360 ca         1 1E8       0.164500
      5 C5           0.3270     1.7340    -0.2300 ca         1 1E8      -0.382900
      6 C6          -0.2420     3.0230    -0.0950 ca         1 1E8       0.456900
      7 NAB         -1.5300     3.2360     0.1820 nv         1 1E8      -1.067900
      8 OAC          5.9830    -0.0640     1.8370 o          1 1E8      -0.598100
      9 CAD          7.4840    -1.5990     0.8580 ce         1 1E8      -0.294200
     10 CAE         -8.6190    -0.5210    -0.7940 ca         1 1E8      -0.111000
     11 CAF         -8.0080     0.0830     0.2980 ca         1 1E8      -0.100500
     12 CAG         -8.0250    -1.6230    -1.3940 ca         1 1E8      -0.100500
     13 CAI         -6.8070    -0.4070     0.7900 ca         1 1E8      -0.118500
     14 CAJ         -6.8190    -2.1190    -0.9130 ca         1 1E8      -0.118500
     15 CAK         -3.7340    -0.3610    -0.4670 ca         1 1E8      -0.165500
     16 CAL         -2.7770    -1.8710     1.1490 ca         1 1E8      -0.165500
     17 CAM         -2.4830     0.2110    -0.6500 ca         1 1E8      -0.062000
     18 CAN         -1.5380    -1.2910     0.9550 ca         1 1E8      -0.062000
     19 CAO          4.8850    -1.5980    -2.0240 c6         1 1E8      -0.102400
     20 CAP          3.5150    -0.9350    -1.9210 c6         1 1E8      -0.089400
     21 CAQ          5.1930    -2.4120    -0.7730 c6         1 1E8       0.098000
     22 CAR          3.7590    -1.0180     0.5820 c6         1 1E8       0.077000
     23 NAU          1.0120    -0.3950    -0.2790 nc         1 1E8      -0.527100
     24 CAY         -6.2240    -1.5070     0.1780 ca         1 1E8       0.095100
     25 CAZ         -3.8810    -1.4030     0.4410 ca         1 1E8       0.146100
     26 CBA         -1.3720    -0.2330     0.0610 ca         1 1E8      -0.136900
     27 CBB         -0.0500     0.3650    -0.1460 cd         1 1E8       0.443500
     28 CBE          3.3970    -0.1420    -0.6220 c6         1 1E8       0.082300
     29 NBF          2.0710     0.4110    -0.4510 na         1 1E8      -0.017100
     30 NBG          5.0890    -1.5670     0.4080 n          1 1E8      -0.400800
     31 H2           2.4270     4.8090    -0.6180 h5         1 1E8       0.047100
     32 HAA          8.5360     0.0530     1.6510 ha         1 1E8       0.175500
     33 HAAA         9.5590    -1.3730     1.0830 ha         1 1E8       0.175500
     34 HNAB        -1.8420     4.1770     0.3530 hn         1 1E8       0.501500
     35 HNAA        -2.1400     2.4880     0.4650 hn         1 1E8       0.501500
     36 HAD          7.5820    -2.5870     0.4280 ha         1 1E8       0.180000
     37 HAF         -8.4700     0.9380     0.7740 ha         1 1E8       0.117500
     38 HAG         -8.4970    -2.1010    -2.2420 ha         1 1E8       0.117500
     39 HAI         -6.3320     0.0580     1.6450 ha         1 1E8       0.129000
     40 HAJ         -6.3490    -2.9780    -1.3770 ha         1 1E8       0.129000
     41 HAK         -4.5730     0.0070    -1.0430 ha         1 1E8       0.131000
     42 HAL         -2.8940    -2.6850     1.8530 ha         1 1E8       0.131000
     43 HAM         -2.3790     1.0010    -1.3830 ha         1 1E8       0.125000
     44 HAN         -0.6890    -1.6550     1.5200 ha         1 1E8       0.125000
     45 HAO          4.9170    -2.2520    -2.8980 hc         1 1E8       0.052700
     46 HAOA         5.6630    -0.8420    -2.1600 hc         1 1E8       0.052700
     47 HAP          3.3450    -0.2750    -2.7750 hc         1 1E8       0.059700
     48 HAPA         2.7360    -1.7030    -1.9430 hc         1 1E8       0.059700
     49 HAQ          4.4700    -3.2270    -0.6720 h1         1 1E8       0.054700
     50 HAQA         6.1750    -2.8690    -0.8460 h1         1 1E8       0.054700
     51 HAR          3.7070    -0.4460     1.5040 h1         1 1E8       0.077700
     52 HARA         3.0500    -1.8480     0.6550 h1         1 1E8       0.077700
     53 HBE          4.0770     0.7130    -0.6480 h1         1 1E8       0.097700
     54 OAV         -5.0590    -2.0360     0.6810 os         1 1E8      -0.253200
     55 CAW          6.1340    -1.0050     1.0670 c          1 1E8       0.602300
     56 HAE         -9.5570    -0.1380    -1.1720 ha         1 1E8       0.118000
     57 CAA          8.5780    -0.9380     1.2180 c2         1 1E8      -0.237000
@<TRIPOS>BOND
     1     1     2 ar  
     2     1     6 ar  
     3     2     3 ar  
     4     2    31 1   
     5     3     4 ar  
     6     4     5 ar  
     7     4    29 1   
     8     5     6 ar  
     9     5    27 1   
    10     6     7 1   
    11     7    34 1   
    12     7    35 1   
    13     8    55 2   
    14     9    36 1   
    15     9    55 1   
    16     9    57 2   
    17    10    11 ar  
    18    10    12 ar  
    19    10    56 1   
    20    11    13 ar  
    21    11    37 1   
    22    12    14 ar  
    23    12    38 1   
    24    13    24 ar  
    25    13    39 1   
    26    14    24 ar  
    27    14    40 1   
    28    15    17 ar  
    29    15    25 ar  
    30    15    41 1   
    31    16    18 ar  
    32    16    25 ar  
    33    16    42 1   
    34    17    26 ar  
    35    17    43 1   
    36    18    26 ar  
    37    18    44 1   
    38    19    20 1   
    39    19    21 1   
    40    19    45 1   
    41    19    46 1   
    42    20    28 1   
    43    20    47 1   
    44    20    48 1   
    45    21    30 1   
    46    21    49 1   
    47    21    50 1   
    48    22    28 1   
    49    22    30 1   
    50    22    51 1   
    51    22    52 1   
    52    23    27 2   
    53    23    29 1   
    54    24    54 1   
    55    25    54 1   
    56    26    27 1   
    57    28    29 1   
    58    28    53 1   
    59    30    55 1   
    60    32    57 1   
    61    33    57 1   
@<TRIPOS>SUBSTRUCTURE
     1 1E8         1 TEMP              0 ****  ****    0 ROOT
