@<TRIPOS>MOLECULE
1E8
   57    61     1     0     0
SMALL
No Charge or Current Charge


@<TRIPOS>ATOM
      1 N1           0.0900     4.0200    -0.5410 nb         1 1E8      -0.313000
      2 C2           1.4170     4.0070    -0.8100 ca         1 1E8       0.197900
      3 N3           2.2080     2.9130    -0.9200 nb         1 1E8      -0.228000
      4 C4           1.5850     1.7260    -0.7740 ca         1 1E8       0.164500
      5 C5           0.2410     1.6530    -0.5440 ca         1 1E8      -0.382900
      6 C6          -0.4960     2.8240    -0.3980 ca         1 1E8       0.456900
      7 NAB         -1.8010     2.8550    -0.0600 nv         1 1E8      -1.067900
      8 OAC          5.8370    -0.7430     2.5470 o          1 1E8      -0.598100
      9 CAD          7.4820    -2.0450     1.4590 ce         1 1E8      -0.294200
     10 CAE         -8.8280    -0.2600    -0.0460 ca         1 1E8      -0.111000
     11 CAF         -7.7420     0.3940     0.5640 ca         1 1E8      -0.100500
     12 CAG         -8.6720    -1.5620    -0.5510 ca         1 1E8      -0.100500
     13 CAI         -6.4980    -0.2540     0.6650 ca         1 1E8      -0.118500
     14 CAJ         -7.4280    -2.2110    -0.4510 ca         1 1E8      -0.118500
     15 CAK         -3.7380    -0.5870    -0.8850 ca         1 1E8      -0.165500
     16 CAL         -2.8340    -2.0000     0.8740 ca         1 1E8      -0.165500
     17 CAM         -2.4820     0.0240    -1.0390 ca         1 1E8      -0.062000
     18 CAN         -1.5780    -1.3890     0.7200 ca         1 1E8      -0.062000
     19 CAO          5.2130    -1.1290    -2.2680 c6         1 1E8      -0.102400
     20 CAP          3.7050    -0.8940    -2.0930 c6         1 1E8      -0.089400
     21 CAQ          5.8660    -1.6990    -0.9860 c6         1 1E8       0.098000
     22 CAR          4.0940    -0.4710     0.3860 c6         1 1E8       0.077000
     23 NAU          1.0380    -0.4990    -0.4970 nc         1 1E8      -0.527100
     24 CAY         -6.3380    -1.5550     0.1460 ca         1 1E8       0.095100
     25 CAZ         -3.9190    -1.5900     0.0860 ca         1 1E8       0.146100
     26 CBA         -1.3990    -0.3480    -0.2150 ca         1 1E8      -0.136900
     27 CBB         -0.0660     0.2500    -0.4090 cd         1 1E8       0.443500
     28 CBE          3.4970     0.0900    -0.9280 c6         1 1E8       0.082300
     29 NBF          2.0610     0.4210    -0.7510 na         1 1E8      -0.017100
     30 NBG          5.4860    -1.0270     0.2980 n          1 1E8      -0.400800
     31 H2           1.9030     4.9750    -0.9280 h5         1 1E8       0.047100
     32 HAA          8.3980    -1.2430     3.2250 ha         1 1E8       0.175500
     33 HAAA         9.4060    -2.4880     2.2920 ha         1 1E8       0.175500
     34 HNAB        -2.1860     3.7410     0.2540 hn         1 1E8       0.501500
     35 HNAA        -2.2230     2.0140     0.3190 hn         1 1E8       0.501500
     36 HAD          7.6310    -2.7070     0.6100 ha         1 1E8       0.180000
     37 HAF         -7.8660     1.3990     0.9610 ha         1 1E8       0.117500
     38 HAG         -9.5140    -2.0690    -1.0180 ha         1 1E8       0.117500
     39 HAI         -5.6650     0.2520     1.1480 ha         1 1E8       0.129000
     40 HAJ         -7.3060    -3.2190    -0.8390 ha         1 1E8       0.129000
     41 HAK         -4.5630    -0.2920    -1.5290 ha         1 1E8       0.131000
     42 HAL         -2.9670    -2.7940     1.6050 ha         1 1E8       0.131000
     43 HAM         -2.3460     0.7790    -1.8120 ha         1 1E8       0.125000
     44 HAN         -0.7420    -1.7180     1.3350 ha         1 1E8       0.125000
     45 HAO          5.3940    -1.8120    -3.1090 hc         1 1E8       0.052700
     46 HAOA         5.7030    -0.1810    -2.5310 hc         1 1E8       0.052700
     47 HAP          3.2780    -0.4830    -3.0180 hc         1 1E8       0.059700
     48 HAPA         3.1910    -1.8460    -1.8950 hc         1 1E8       0.059700
     49 HAQ          5.6050    -2.7640    -0.9030 h1         1 1E8       0.054700
     50 HAQA         6.9540    -1.6380    -1.1250 h1         1 1E8       0.054700
     51 HAR          4.0650     0.3320     1.1380 h1         1 1E8       0.077700
     52 HARA         3.4380    -1.2710     0.7570 h1         1 1E8       0.077700
     53 HBE          4.0380     1.0160    -1.1700 h1         1 1E8       0.097700
     54 OAV         -5.1350    -2.2180     0.2440 os         1 1E8      -0.253200
     55 CAW          6.2080    -1.2510     1.4970 c          1 1E8       0.602300
     56 HAE         -9.7900     0.2420    -0.1230 ha         1 1E8       0.118000
     57 CAA          8.4780    -1.9180     2.3710 c2         1 1E8      -0.237000
@<TRIPOS>BOND
     1     1     2 ar  
     2     1     6 ar  
     3     2     3 ar  
     4     2    31 1   
     5     3     4 ar  
     6     4     5 ar  
     7     4    29 1   
     8     5     6 ar  
     9     5    27 1   
    10     6     7 1   
    11     7    34 1   
    12     7    35 1   
    13     8    55 2   
    14     9    36 1   
    15     9    55 1   
    16     9    57 2   
    17    10    11 ar  
    18    10    12 ar  
    19    10    56 1   
    20    11    13 ar  
    21    11    37 1   
    22    12    14 ar  
    23    12    38 1   
    24    13    24 ar  
    25    13    39 1   
    26    14    24 ar  
    27    14    40 1   
    28    15    17 ar  
    29    15    25 ar  
    30    15    41 1   
    31    16    18 ar  
    32    16    25 ar  
    33    16    42 1   
    34    17    26 ar  
    35    17    43 1   
    36    18    26 ar  
    37    18    44 1   
    38    19    20 1   
    39    19    21 1   
    40    19    45 1   
    41    19    46 1   
    42    20    28 1   
    43    20    47 1   
    44    20    48 1   
    45    21    30 1   
    46    21    49 1   
    47    21    50 1   
    48    22    28 1   
    49    22    30 1   
    50    22    51 1   
    51    22    52 1   
    52    23    27 2   
    53    23    29 1   
    54    24    54 1   
    55    25    54 1   
    56    26    27 1   
    57    28    29 1   
    58    28    53 1   
    59    30    55 1   
    60    32    57 1   
    61    33    57 1   
@<TRIPOS>SUBSTRUCTURE
     1 1E8         1 TEMP              0 ****  ****    0 ROOT
