@<TRIPOS>MOLECULE
1E9
  103   109     1     0     0
SMALL
abcg2


@<TRIPOS>ATOM
      1 C1           3.6370     1.9530    -0.5880 c3         1 1E9      -0.098400
      2 C2           4.9610     1.3770    -0.0780 c3         1 1E9       0.243500
      3 C3           2.4230     1.4500     0.1850 c3         1 1E9       0.164800
      4 C4           6.1380     2.0500    -0.7670 c3         1 1E9       0.032600
      5 S1           7.6960     1.3320    -0.1490 ss         1 1E9      -0.197000
      6 C5           8.8570     2.5580    -0.6940 ca         1 1E9      -0.125000
      7 N1           1.1810     2.0460    -0.2770 n3         1 1E9      -0.713600
      8 C6           0.7500     1.4890    -1.5430 c3         1 1E9       0.147100
      9 C7           0.1420     1.9090     0.7220 c3         1 1E9       0.147100
     10 C8           9.7360     2.2600    -1.7300 ca         1 1E9      -0.068500
     11 C9          10.6750     3.2010    -2.1350 ca         1 1E9      -0.120000
     12 C10         10.7310     4.4420    -1.5150 ca         1 1E9      -0.086000
     13 C11          9.8510     4.7410    -0.4810 ca         1 1E9      -0.120000
     14 C12          8.9230     3.7990    -0.0640 ca         1 1E9      -0.068500
     15 N2           5.0420    -0.0570    -0.3110 nu         1 1E9      -0.921200
     16 C13          3.9170    -1.7020     2.7430 ca         1 1E9       0.054000
     17 C14          3.7480    -3.0210     2.3000 ca         1 1E9      -0.410500
     18 C15          4.0980    -3.3680     1.0180 ca         1 1E9       0.146000
     19 C16          4.5830    -2.4060     0.1410 ca         1 1E9      -0.305200
     20 C17          4.6910    -1.0350     0.5260 ca         1 1E9       0.478000
     21 C18          4.3880    -0.7520     1.8870 ca         1 1E9      -0.242000
     22 O1           2.9230    -5.4710     2.7320 o          1 1E9      -0.513000
     23 O2           3.0720    -3.8980     4.6870 o          1 1E9      -0.513000
     24 C19         -8.7740     5.1280     0.8270 ca         1 1E9      -0.106000
     25 C20         -8.7830     3.8150     0.3760 ca         1 1E9      -0.103000
     26 C21         -7.7110     3.2890    -0.3420 cp         1 1E9      -0.020000
     27 C22         -6.5960     4.1000    -0.5980 ca         1 1E9      -0.077300
     28 C23         -6.5980     5.4120    -0.1370 ca         1 1E9      -0.110000
     29 C24         -7.6770     5.9330     0.5650 ca         1 1E9      -0.106000
     30 C25         -7.7840     1.8800    -0.7970 cp         1 1E9      -0.006000
     31 C26         -7.9270     0.8520     0.1310 ca         1 1E9      -0.092000
     32 C27         -7.9850    -0.4740    -0.2700 ca         1 1E9      -0.106500
     33 C28         -7.9110    -0.7730    -1.6210 ca         1 1E9       0.114000
     34 C29         -7.7990     0.2320    -2.5690 ca         1 1E9      -0.106500
     35 C30         -7.7410     1.5520    -2.1500 ca         1 1E9      -0.092000
     36 N3          -4.9340     2.3210    -0.7740 n3         1 1E9      -0.740600
     37 C32         -4.3210     2.4390     0.5230 c6         1 1E9       0.166300
     38 C33         -4.0980     1.0710     1.1470 c6         1 1E9       0.214300
     39 N4          -3.3460     0.2090     0.2510 nh         1 1E9      -0.808400
     40 C34         -3.9260     0.1470    -1.0820 c6         1 1E9       0.214300
     41 C35         -4.1180     1.5340    -1.6600 c6         1 1E9       0.166300
     42 C36         -2.4310    -0.6850     0.6980 ca         1 1E9       0.378000
     43 C37         -1.6380    -1.4380    -0.2080 ca         1 1E9      -0.080000
     44 C38         -1.1990    -1.7160     2.5550 ca         1 1E9       0.006000
     45 C39         -2.1970    -0.8870     2.0830 ca         1 1E9      -0.194000
     46 C40         -0.4070    -2.4120     1.6530 ca         1 1E9      -0.273900
     47 C41         -0.6700    -2.2500     0.3020 ca         1 1E9      -0.192500
     48 S3           0.5050    -3.2460    -0.5860 sy         1 1E9       1.173100
     49 N5           1.2530    -3.8360     0.7670 ne         1 1E9      -0.759300
     50 C42          0.7260    -3.3150     1.8300 cf         1 1E9       0.821800
     51 N6           1.2490    -3.5600     3.0520 nu         1 1E9      -0.804300
     52 O4           1.4310    -2.4150    -1.3340 o          1 1E9      -0.519000
     53 CL1         -7.9650    -2.4300    -2.1340 cl         1 1E9      -0.202000
     54 N7           4.8900    -2.8640    -1.1850 no         1 1E9       0.718200
     55 O5           4.7910    -4.0430    -1.4340 o          1 1E9      -0.413500
     56 O6           5.2440    -2.0500    -2.0210 o          1 1E9      -0.413500
     57 H1           3.6810     3.0420    -0.4970 hc         1 1E9       0.063200
     58 H2           3.5460     1.7280    -1.6540 hc         1 1E9       0.063200
     59 H3           5.0560     1.5760     0.9900 h1         1 1E9       0.073700
     60 H4           2.3660     0.3490     0.1440 h1         1 1E9       0.035200
     61 H5           2.5540     1.7160     1.2370 h1         1 1E9       0.035200
     62 H6           6.0800     1.9330    -1.8510 h1         1 1E9       0.075700
     63 H7           6.1180     3.1160    -0.5410 h1         1 1E9       0.075700
     64 H9           0.5580     0.4060    -1.4940 h1         1 1E9       0.032367
     65 H10         -0.1700     1.9770    -1.8670 h1         1 1E9       0.032367
     66 H11          1.4980     1.6590    -2.3180 h1         1 1E9       0.032367
     67 H12          0.4310     2.4220     1.6410 h1         1 1E9       0.032367
     68 H13         -0.7840     2.3630     0.3640 h1         1 1E9       0.032367
     69 H14         -0.0850     0.8640     0.9790 h1         1 1E9       0.032367
     70 H15          9.6860     1.2970    -2.2200 ha         1 1E9       0.124500
     71 H16         11.3590     2.9650    -2.9400 ha         1 1E9       0.117500
     72 H17         11.4590     5.1760    -1.8360 ha         1 1E9       0.116000
     73 H18          9.8930     5.7050     0.0070 ha         1 1E9       0.117500
     74 H19          8.2480     4.0260     0.7520 ha         1 1E9       0.124500
     75 H20          5.2130    -0.3360    -1.2670 hn         1 1E9       0.540000
     76 H21          3.6690    -1.4170     3.7570 ha         1 1E9       0.129000
     77 H22          3.9770    -4.3840     0.6770 ha         1 1E9       0.183000
     78 H23          4.5020     0.2530     2.2610 ha         1 1E9       0.125000
     79 H25         -9.6440     3.1870     0.5750 ha         1 1E9       0.119000
     80 H26         -5.7300     6.0350    -0.3180 ha         1 1E9       0.112000
     81 H27         -7.6520     6.9570     0.9130 ha         1 1E9       0.117000
     82 H28         -7.9650     1.0830     1.1880 ha         1 1E9       0.116500
     83 H29         -8.0770    -1.2620     0.4650 ha         1 1E9       0.129000
     84 H30         -7.7620    -0.0060    -3.6230 ha         1 1E9       0.129000
     85 H31         -7.6640     2.3330    -2.8940 ha         1 1E9       0.116500
     86 H35         -3.3580     2.9800     0.4790 h1         1 1E9       0.044200
     87 H36         -4.9740     3.0050     1.1900 h1         1 1E9       0.044200
     88 H37         -3.5560     1.2260     2.0750 h1         1 1E9       0.058450
     89 H38         -5.0640     0.6130     1.3920 h1         1 1E9       0.058450
     90 H39         -3.3030    -0.4290    -1.7580 h1         1 1E9       0.058450
     91 H40         -4.8990    -0.3550    -1.0270 h1         1 1E9       0.058450
     92 H41         -4.6230     1.4340    -2.6230 h1         1 1E9       0.044200
     93 H42         -3.1320     1.9920    -1.8550 h1         1 1E9       0.044200
     94 H43         -1.7530    -1.3540    -1.2780 ha         1 1E9       0.133000
     95 H44         -1.0690    -1.8160     3.6260 ha         1 1E9       0.116000
     96 H45         -2.8100    -0.3900     2.8170 ha         1 1E9       0.121000
     97 H46          0.8360    -3.1200     3.8660 hn         1 1E9       0.516000
     98 S2           2.8360    -4.1370     3.2790 sy         1 1E9       1.205600
     99 O3          -0.1580    -4.3300    -1.2890 o          1 1E9      -0.519000
    100 C31         -5.3860     3.5710    -1.3310 c3         1 1E9       0.230100
    101 H24         -9.6210     5.5160     1.3780 ha         1 1E9       0.118000
    102 H32         -5.6390     3.4000    -2.3810 h1         1 1E9       0.041200
    103 H33         -4.6000     4.3440    -1.3350 h1         1 1E9       0.041200
@<TRIPOS>BOND
     1     1     2 1   
     2     1     3 1   
     3     1    57 1   
     4     1    58 1   
     5     2     4 1   
     6     2    15 1   
     7     2    59 1   
     8     3     7 1   
     9     3    60 1   
    10     3    61 1   
    11     4     5 1   
    12     4    62 1   
    13     4    63 1   
    14     5     6 1   
    15     6    10 ar  
    16     6    14 ar  
    17     7     8 1   
    18     7     9 1   
    19     8    64 1   
    20     8    65 1   
    21     8    66 1   
    22     9    67 1   
    23     9    68 1   
    24     9    69 1   
    25    10    11 ar  
    26    10    70 1   
    27    11    12 ar  
    28    11    71 1   
    29    12    13 ar  
    30    12    72 1   
    31    13    14 ar  
    32    13    73 1   
    33    14    74 1   
    34    15    20 1   
    35    15    75 1   
    36    16    17 ar  
    37    16    21 ar  
    38    16    76 1   
    39    17    18 ar  
    40    17    98 1   
    41    18    19 ar  
    42    18    77 1   
    43    19    20 ar  
    44    19    54 1   
    45    20    21 ar  
    46    21    78 1   
    47    22    98 2   
    48    23    98 2   
    49    24    25 ar  
    50    24    29 ar  
    51    24   101 1   
    52    25    26 ar  
    53    25    79 1   
    54    26    27 ar  
    55    26    30 1   
    56    27    28 ar  
    57    27   100 1   
    58    28    29 ar  
    59    28    80 1   
    60    29    81 1   
    61    30    31 ar  
    62    30    35 ar  
    63    31    32 ar  
    64    31    82 1   
    65    32    33 ar  
    66    32    83 1   
    67    33    34 ar  
    68    33    53 1   
    69    34    35 ar  
    70    34    84 1   
    71    35    85 1   
    72    36    37 1   
    73    36    41 1   
    74    36   100 1   
    75    37    38 1   
    76    37    86 1   
    77    37    87 1   
    78    38    39 1   
    79    38    88 1   
    80    38    89 1   
    81    39    40 1   
    82    39    42 1   
    83    40    41 1   
    84    40    90 1   
    85    40    91 1   
    86    41    92 1   
    87    41    93 1   
    88    42    43 ar  
    89    42    45 ar  
    90    43    47 ar  
    91    43    94 1   
    92    44    45 ar  
    93    44    46 ar  
    94    44    95 1   
    95    45    96 1   
    96    46    47 ar  
    97    46    50 1   
    98    47    48 1   
    99    48    49 1   
   100    48    52 2   
   101    48    99 2   
   102    49    50 2   
   103    50    51 1   
   104    51    97 1   
   105    51    98 1   
   106    54    55 1   
   107    54    56 1   
   108   100   102 1   
   109   100   103 1   
@<TRIPOS>SUBSTRUCTURE
     1 1E9         1 TEMP              0 ****  ****    0 ROOT
