@<TRIPOS>MOLECULE
1E9
  103   109     1     0     0
SMALL
No Charge or Current Charge


@<TRIPOS>ATOM
      1 C1           3.8000     1.8120    -0.6340 c3         1 1E9      -0.098400
      2 C2           5.0540     1.5220     0.2290 c3         1 1E9       0.243500
      3 C3           2.4720     1.3540     0.0110 c3         1 1E9       0.164800
      4 C4           6.2620     2.3670    -0.2470 c3         1 1E9       0.032600
      5 S1           7.7400     2.1440     0.8530 ss         1 1E9      -0.197000
      6 C5           9.0260     3.1980     0.1710 ca         1 1E9      -0.125000
      7 N1           1.2540     1.8300    -0.6870 n3         1 1E9      -0.713600
      8 C6           1.0780     1.2350    -2.0340 c3         1 1E9       0.147100
      9 C7           0.0460     1.6580     0.1460 c3         1 1E9       0.147100
     10 C8          10.2700     3.2290     0.8280 ca         1 1E9      -0.068500
     11 C9          11.3140     4.0340     0.3420 ca         1 1E9      -0.120000
     12 C10         11.1220     4.8160    -0.8090 ca         1 1E9      -0.086000
     13 C11          9.8830     4.7910    -1.4710 ca         1 1E9      -0.120000
     14 C12          8.8360     3.9860    -0.9860 ca         1 1E9      -0.068500
     15 N2           5.4080     0.0900     0.1640 nu         1 1E9      -0.921200
     16 C13          3.3780    -1.8400     2.5850 ca         1 1E9       0.054000
     17 C14          3.3940    -3.1150     2.0030 ca         1 1E9      -0.410500
     18 C15          4.1070    -3.3390     0.8120 ca         1 1E9       0.146000
     19 C16          4.7820    -2.2770     0.1730 ca         1 1E9      -0.305200
     20 C17          4.7480    -0.9900     0.7510 ca         1 1E9       0.478000
     21 C18          4.0640    -0.7920     1.9610 ca         1 1E9      -0.242000
     22 O1           3.0980    -5.7520     2.3450 o          1 1E9      -0.513000
     23 O2           2.2820    -4.1630     4.1840 o          1 1E9      -0.513000
     24 C19         -7.7220     5.9570     0.9560 ca         1 1E9      -0.106000
     25 C20         -8.1980     4.6370     0.9430 ca         1 1E9      -0.103000
     26 C21         -7.6630     3.6720     0.0550 cp         1 1E9      -0.020000
     27 C22         -6.6080     4.0620    -0.8220 ca         1 1E9      -0.077300
     28 C23         -6.1380     5.3930    -0.7980 ca         1 1E9      -0.110000
     29 C24         -6.6930     6.3350     0.0820 ca         1 1E9      -0.106000
     30 C25         -8.2010     2.2800     0.0880 cp         1 1E9      -0.006000
     31 C26         -8.1190     1.5090     1.2730 ca         1 1E9      -0.092000
     32 C27         -8.6100     0.1930     1.3140 ca         1 1E9      -0.106500
     33 C28         -9.1980    -0.3700     0.1700 ca         1 1E9       0.114000
     34 C29         -9.3020     0.3810    -1.0110 ca         1 1E9      -0.106500
     35 C30         -8.8100     1.6980    -1.0510 ca         1 1E9      -0.092000
     36 N3          -5.3130     1.9130    -1.0910 n3         1 1E9      -0.740600
     37 C32         -4.2280     2.2930    -0.1350 c6         1 1E9       0.166300
     38 C33         -3.6440     1.0630     0.6320 c6         1 1E9       0.214300
     39 N4          -3.2000    -0.0300    -0.2920 nh         1 1E9      -0.808400
     40 C34         -4.2430    -0.3860    -1.3080 c6         1 1E9       0.214300
     41 C35         -4.8160     0.8710    -2.0390 c6         1 1E9       0.166300
     42 C36         -2.2290    -0.9830     0.0990 ca         1 1E9       0.378000
     43 C37         -1.4420    -1.6270    -0.8800 ca         1 1E9      -0.080000
     44 C38         -1.0330    -2.2240     1.8650 ca         1 1E9       0.006000
     45 C39         -2.0110    -1.2880     1.4670 ca         1 1E9      -0.194000
     46 C40         -0.2670    -2.8540     0.8670 ca         1 1E9      -0.273900
     47 C41         -0.4750    -2.5510    -0.4580 ca         1 1E9      -0.192500
     48 S3           0.6390    -3.5420    -1.4150 sy         1 1E9       1.173100
     49 N5           1.2940    -4.3530    -0.1270 ne         1 1E9      -0.759300
     50 C42          0.7920    -3.8740     0.9670 cf         1 1E9       0.821800
     51 N6           0.9970    -4.4770     2.1450 nu         1 1E9      -0.804300
     52 O4           1.6440    -2.6510    -2.0040 o          1 1E9      -0.519000
     53 Cl1         -9.8100    -2.0180     0.2180 cl         1 1E9      -0.202000
     54 N7           5.5120    -2.5800    -1.0880 no         1 1E9       0.718200
     55 O5           5.8580    -3.7510    -1.2840 o          1 1E9      -0.413500
     56 O6           5.7390    -1.6660    -1.8890 o          1 1E9      -0.413500
     57 H1           3.7290     2.8940    -0.7950 hc         1 1E9       0.063200
     58 H2           3.9230     1.3520    -1.6210 hc         1 1E9       0.063200
     59 H3           4.8500     1.8280     1.2650 h1         1 1E9       0.073700
     60 H4           2.4550     0.2570     0.0650 h1         1 1E9       0.035200
     61 H5           2.4630     1.7280     1.0440 h1         1 1E9       0.035200
     62 H6           6.5280     2.0850    -1.2730 h1         1 1E9       0.075700
     63 H7           5.9840     3.4280    -0.2380 h1         1 1E9       0.075700
     64 H9           0.9910     0.1420    -1.9700 h1         1 1E9       0.032367
     65 H10          0.1680     1.6220    -2.5110 h1         1 1E9       0.032367
     66 H11          1.9240     1.4770    -2.6900 h1         1 1E9       0.032367
     67 H12          0.1340     2.2290     1.0800 h1         1 1E9       0.032367
     68 H13         -0.8500     2.0100    -0.3820 h1         1 1E9       0.032367
     69 H14         -0.0950     0.6010     0.4070 h1         1 1E9       0.032367
     70 H15         10.4280     2.6260     1.7200 ha         1 1E9       0.124500
     71 H16         12.2720     4.0520     0.8570 ha         1 1E9       0.117500
     72 H17         11.9290     5.4400    -1.1870 ha         1 1E9       0.116000
     73 H18          9.7320     5.3960    -2.3630 ha         1 1E9       0.117500
     74 H19          7.8920     3.9880    -1.5210 ha         1 1E9       0.124500
     75 H20          5.9160    -0.1850    -0.6780 hn         1 1E9       0.540000
     76 H21          2.8450    -1.6530     3.5170 ha         1 1E9       0.129000
     77 H22          4.1140    -4.3390     0.3720 ha         1 1E9       0.183000
     78 H23          4.0570     0.1820     2.4340 ha         1 1E9       0.125000
     79 H25         -8.9970     4.3530     1.6240 ha         1 1E9       0.119000
     80 H26         -5.3320     5.6990    -1.4610 ha         1 1E9       0.112000
     81 H27         -6.3200     7.3570     0.0910 ha         1 1E9       0.117000
     82 H28         -7.6570     1.9370     2.1600 ha         1 1E9       0.116500
     83 H29         -8.5330    -0.3900     2.2280 ha         1 1E9       0.129000
     84 H30         -9.7640    -0.0550    -1.8940 ha         1 1E9       0.129000
     85 H31         -8.9020     2.2760    -1.9670 ha         1 1E9       0.116500
     86 H35         -3.4070     2.7870    -0.6750 h1         1 1E9       0.044200
     87 H36         -4.6010     3.0130     0.6070 h1         1 1E9       0.044200
     88 H37         -2.8020     1.4130     1.2470 h1         1 1E9       0.058450
     89 H38         -4.4150     0.6820     1.3180 h1         1 1E9       0.058450
     90 H39         -3.8390    -1.0700    -2.0680 h1         1 1E9       0.058450
     91 H40         -5.0740    -0.9100    -0.8140 h1         1 1E9       0.058450
     92 H41         -5.6280     0.5450    -2.7050 h1         1 1E9       0.044200
     93 H42         -4.0260     1.2910    -2.6790 h1         1 1E9       0.044200
     94 H43         -1.5730    -1.4030    -1.9340 ha         1 1E9       0.133000
     95 H44         -0.8910    -2.4400     2.9220 ha         1 1E9       0.116000
     96 H45         -2.6110    -0.8070     2.2330 ha         1 1E9       0.121000
     97 H46          0.4410    -4.0830     2.8790 hn         1 1E9       0.516000
     98 S2           2.5260    -4.4760     2.7770 sy         1 1E9       1.205600
     99 O3          -0.1610    -4.4570    -2.2370 o          1 1E9      -0.519000
    100 C31         -5.9330     3.0710    -1.7770 c3         1 1E9       0.230100
    101 H24         -8.1500     6.6850     1.6420 ha         1 1E9       0.118000
    102 H32         -6.6860     2.7200    -2.4940 h1         1 1E9       0.041200
    103 H33         -5.1700     3.5990    -2.3660 h1         1 1E9       0.041200
@<TRIPOS>BOND
     1     1     2 1   
     2     1     3 1   
     3     1    57 1   
     4     1    58 1   
     5     2     4 1   
     6     2    15 1   
     7     2    59 1   
     8     3     7 1   
     9     3    60 1   
    10     3    61 1   
    11     4     5 1   
    12     4    62 1   
    13     4    63 1   
    14     5     6 1   
    15     6    10 ar  
    16     6    14 ar  
    17     7     8 1   
    18     7     9 1   
    19     8    64 1   
    20     8    65 1   
    21     8    66 1   
    22     9    67 1   
    23     9    68 1   
    24     9    69 1   
    25    10    11 ar  
    26    10    70 1   
    27    11    12 ar  
    28    11    71 1   
    29    12    13 ar  
    30    12    72 1   
    31    13    14 ar  
    32    13    73 1   
    33    14    74 1   
    34    15    20 1   
    35    15    75 1   
    36    16    17 ar  
    37    16    21 ar  
    38    16    76 1   
    39    17    18 ar  
    40    17    98 1   
    41    18    19 ar  
    42    18    77 1   
    43    19    20 ar  
    44    19    54 1   
    45    20    21 ar  
    46    21    78 1   
    47    22    98 2   
    48    23    98 2   
    49    24    25 ar  
    50    24    29 ar  
    51    24   101 1   
    52    25    26 ar  
    53    25    79 1   
    54    26    27 ar  
    55    26    30 1   
    56    27    28 ar  
    57    27   100 1   
    58    28    29 ar  
    59    28    80 1   
    60    29    81 1   
    61    30    31 ar  
    62    30    35 ar  
    63    31    32 ar  
    64    31    82 1   
    65    32    33 ar  
    66    32    83 1   
    67    33    34 ar  
    68    33    53 1   
    69    34    35 ar  
    70    34    84 1   
    71    35    85 1   
    72    36    37 1   
    73    36    41 1   
    74    36   100 1   
    75    37    38 1   
    76    37    86 1   
    77    37    87 1   
    78    38    39 1   
    79    38    88 1   
    80    38    89 1   
    81    39    40 1   
    82    39    42 1   
    83    40    41 1   
    84    40    90 1   
    85    40    91 1   
    86    41    92 1   
    87    41    93 1   
    88    42    43 ar  
    89    42    45 ar  
    90    43    47 ar  
    91    43    94 1   
    92    44    45 ar  
    93    44    46 ar  
    94    44    95 1   
    95    45    96 1   
    96    46    47 ar  
    97    46    50 1   
    98    47    48 1   
    99    48    49 1   
   100    48    52 2   
   101    48    99 2   
   102    49    50 2   
   103    50    51 1   
   104    51    97 1   
   105    51    98 1   
   106    54    55 1   
   107    54    56 1   
   108   100   102 1   
   109   100   103 1   
@<TRIPOS>SUBSTRUCTURE
     1 1E9         1 TEMP              0 ****  ****    0 ROOT
