@<TRIPOS>MOLECULE
1EA
   52    55     1     0     0
SMALL
abcg2


@<TRIPOS>ATOM
      1 O1          -4.6500    -2.5000    -1.8300 o          1 1EA      -0.703500
      2 C22         -3.5760    -1.9290    -2.0890 c          1 1EA       0.715600
      3 O2          -2.8060    -2.1580    -3.0360 o          1 1EA      -0.703500
      4 C3          -3.1230    -0.8400    -1.1140 ca         1 1EA      -0.078600
      5 C4          -4.0100     0.0380    -0.4260 ca         1 1EA      -0.034000
      6 C5          -5.4160     0.0320    -0.5880 ca         1 1EA      -0.084000
      7 C6          -6.1660     0.9520     0.0790 ca         1 1EA       0.119000
      8 F1          -7.5010     0.9480    -0.0760 f          1 1EA      -0.198000
      9 C7          -5.6150     1.9170     0.9350 ca         1 1EA      -0.152000
     10 C8          -4.2610     1.9340     1.1070 ca         1 1EA      -0.082000
     11 C9          -3.4280     1.0060     0.4370 ca         1 1EA       0.240000
     12 N1          -2.1000     1.0920     0.6660 nb         1 1EA      -0.696000
     13 C1          -1.3010     0.2680     0.0390 cp         1 1EA       0.392500
     14 C2          -1.7820    -0.6940    -0.8800 ca         1 1EA      -0.156000
     15 C10          0.1500     0.3510     0.3250 cp         1 1EA      -0.114500
     16 C15          0.8400    -0.8370     0.5570 ca         1 1EA      -0.085000
     17 C14          2.1980    -0.8830     0.8520 ca         1 1EA      -0.084300
     18 C24          2.9180    -2.1770     1.1570 c3         1 1EA      -0.008400
     19 C26          2.9510    -2.4130     2.6690 c3         1 1EA      -0.085600
     20 C25          2.3210    -3.3830     0.4380 c3         1 1EA      -0.085600
     21 C13          2.8540     0.3430     0.9070 ca         1 1EA       0.081100
     22 C12          2.1950     1.5370     0.6630 ca         1 1EA      -0.136000
     23 C11          0.8360     1.5730     0.3730 ca         1 1EA      -0.034300
     24 C23          0.1850     2.8980     0.0980 c3         1 1EA      -0.040800
     25 O3           4.1840     0.3890     1.2480 os         1 1EA      -0.258200
     26 C16          5.1220     0.4470     0.2620 ca         1 1EA       0.145100
     27 C21          6.4390     0.6270     0.6790 ca         1 1EA      -0.163000
     28 C20          7.4540     0.6870    -0.2620 ca         1 1EA      -0.081500
     29 C19          7.1700     0.5700    -1.6190 ca         1 1EA      -0.155000
     30 C18          5.8550     0.3900    -2.0210 ca         1 1EA      -0.081500
     31 C17          4.8240     0.3250    -1.0900 ca         1 1EA      -0.163000
     32 H5          -5.8880    -0.7010    -1.2240 ha         1 1EA       0.176000
     33 H7          -6.2560     2.6250     1.4420 ha         1 1EA       0.112000
     34 H8          -3.7950     2.6630     1.7580 ha         1 1EA       0.113000
     35 H2          -1.0760    -1.3170    -1.4120 ha         1 1EA       0.139000
     36 H15          0.2830    -1.7650     0.5190 ha         1 1EA       0.131000
     37 H3           3.9510    -2.0790     0.8140 hc         1 1EA       0.052700
     38 H262         1.9400    -2.5360     3.0620 hc         1 1EA       0.035033
     39 H261         3.5150    -3.3170     2.9060 hc         1 1EA       0.035033
     40 H263         3.4170    -1.5810     3.1980 hc         1 1EA       0.035033
     41 H252         1.3240    -3.6300     0.8060 hc         1 1EA       0.035033
     42 H251         2.2530    -3.2190    -0.6390 hc         1 1EA       0.035033
     43 H4           2.9510    -4.2580     0.6020 hc         1 1EA       0.035033
     44 H12          2.7580     2.4630     0.7000 ha         1 1EA       0.117000
     45 H232        -0.4580     3.2100     0.9200 hc         1 1EA       0.045700
     46 H233         0.9430     3.6670    -0.0490 hc         1 1EA       0.045700
     47 H231        -0.4380     2.8670    -0.7960 hc         1 1EA       0.045700
     48 H21          6.6590     0.7200     1.7350 ha         1 1EA       0.129500
     49 H20          8.4750     0.8290     0.0690 ha         1 1EA       0.108000
     50 H19          7.9640     0.6200    -2.3510 ha         1 1EA       0.107000
     51 H18          5.6180     0.2960    -3.0730 ha         1 1EA       0.108000
     52 H17          3.8060     0.1820    -1.4280 ha         1 1EA       0.129500
@<TRIPOS>BOND
     1     1     2 1   
     2     2     3 1   
     3     2     4 1   
     4     4     5 ar  
     5     4    14 ar  
     6     5     6 ar  
     7     5    11 ar  
     8     6     7 ar  
     9     6    32 1   
    10     7     8 1   
    11     7     9 ar  
    12     9    10 ar  
    13     9    33 1   
    14    10    11 ar  
    15    10    34 1   
    16    11    12 ar  
    17    12    13 ar  
    18    13    14 ar  
    19    13    15 1   
    20    14    35 1   
    21    15    16 ar  
    22    15    23 ar  
    23    16    17 ar  
    24    16    36 1   
    25    17    18 1   
    26    17    21 ar  
    27    18    19 1   
    28    18    20 1   
    29    18    37 1   
    30    19    38 1   
    31    19    39 1   
    32    19    40 1   
    33    20    41 1   
    34    20    42 1   
    35    20    43 1   
    36    21    22 ar  
    37    21    25 1   
    38    22    23 ar  
    39    22    44 1   
    40    23    24 1   
    41    24    45 1   
    42    24    46 1   
    43    24    47 1   
    44    25    26 1   
    45    26    27 ar  
    46    26    31 ar  
    47    27    28 ar  
    48    27    48 1   
    49    28    29 ar  
    50    28    49 1   
    51    29    30 ar  
    52    29    50 1   
    53    30    31 ar  
    54    30    51 1   
    55    31    52 1   
@<TRIPOS>SUBSTRUCTURE
     1 1EA         1 TEMP              0 ****  ****    0 ROOT
