@<TRIPOS>MOLECULE
1EA
   52    55     1     0     0
SMALL
No Charge or Current Charge


@<TRIPOS>ATOM
      1 O1          -4.7650    -2.7030    -1.2100 o          1 1EA      -0.703500
      2 C22         -3.9060    -2.0010    -1.7230 c          1 1EA       0.715600
      3 O2          -3.4600    -2.1900    -2.8460 o          1 1EA      -0.703500
      4 C3          -3.2930    -0.8940    -0.8960 ca         1 1EA      -0.078600
      5 C4          -4.0530     0.1460    -0.3000 ca         1 1EA      -0.034000
      6 C5          -5.4550     0.2360    -0.4700 ca         1 1EA      -0.084000
      7 C6          -6.1760     1.2750     0.1350 ca         1 1EA       0.119000
      8 F1          -7.5140     1.3510    -0.0310 f          1 1EA      -0.198000
      9 C7          -5.5180     2.2370     0.9100 ca         1 1EA      -0.152000
     10 C8          -4.1250     2.1610     1.0760 ca         1 1EA      -0.082000
     11 C9          -3.3760     1.1290     0.4770 ca         1 1EA       0.240000
     12 N1          -2.0360     1.1070     0.6560 nb         1 1EA      -0.696000
     13 C1          -1.2950     0.1400     0.0730 cp         1 1EA       0.392500
     14 C2          -1.8980    -0.8760    -0.6980 ca         1 1EA      -0.156000
     15 C10          0.1860     0.1460     0.3220 cp         1 1EA      -0.114500
     16 C15          0.8090    -1.0540     0.7490 ca         1 1EA      -0.085000
     17 C14          2.1930    -1.1330     1.0070 ca         1 1EA      -0.084300
     18 C24          2.8100    -2.4630     1.4680 c3         1 1EA      -0.008400
     19 C26          2.2070    -2.9370     2.8090 c3         1 1EA      -0.085600
     20 C25          2.6860    -3.5460     0.3730 c3         1 1EA      -0.085600
     21 C13          2.9790     0.0240     0.8180 ca         1 1EA       0.081100
     22 C12          2.3830     1.2240     0.3940 ca         1 1EA      -0.136000
     23 C11          1.0020     1.3000     0.1360 ca         1 1EA      -0.034300
     24 C23          0.4430     2.6270    -0.3710 c3         1 1EA      -0.040800
     25 O3           4.3350    -0.0070     1.0610 os         1 1EA      -0.258200
     26 C16          5.2640     0.4600     0.1580 ca         1 1EA       0.145100
     27 C21          6.4760     0.9810     0.6420 ca         1 1EA      -0.163000
     28 C20          7.4500     1.4540    -0.2540 ca         1 1EA      -0.081500
     29 C19          7.2130     1.3990    -1.6390 ca         1 1EA      -0.155000
     30 C18          6.0070     0.8680    -2.1280 ca         1 1EA      -0.081500
     31 C17          5.0330     0.3950    -1.2310 ca         1 1EA      -0.163000
     32 H5          -6.0020    -0.4870    -1.0680 ha         1 1EA       0.176000
     33 H7          -6.0820     3.0410     1.3770 ha         1 1EA       0.112000
     34 H8          -3.6160     2.9130     1.6730 ha         1 1EA       0.113000
     35 H2          -1.2760    -1.6470    -1.1430 ha         1 1EA       0.139000
     36 H15          0.1930    -1.9390     0.8930 ha         1 1EA       0.131000
     37 H3           3.8830    -2.3350     1.6480 hc         1 1EA       0.052700
     38 H262         1.1410    -3.1720     2.7090 hc         1 1EA       0.035033
     39 H261         2.7210    -3.8380     3.1660 hc         1 1EA       0.035033
     40 H263         2.3170    -2.1590     3.5740 hc         1 1EA       0.035033
     41 H252         1.6360    -3.7890     0.1710 hc         1 1EA       0.035033
     42 H251         3.1450    -3.2000    -0.5610 hc         1 1EA       0.035033
     43 H4           3.1960    -4.4670     0.6800 hc         1 1EA       0.035033
     44 H12          3.0060     2.1050     0.2590 ha         1 1EA       0.117000
     45 H232        -0.0630     3.1730     0.4340 hc         1 1EA       0.045700
     46 H233         1.2330     3.2780    -0.7640 hc         1 1EA       0.045700
     47 H231        -0.2770     2.4740    -1.1830 hc         1 1EA       0.045700
     48 H21          6.6570     1.0200     1.7130 ha         1 1EA       0.129500
     49 H20          8.3860     1.8610     0.1230 ha         1 1EA       0.108000
     50 H19          7.9670     1.7640    -2.3330 ha         1 1EA       0.107000
     51 H18          5.8290     0.8200    -3.2000 ha         1 1EA       0.108000
     52 H17          4.1080    -0.0250    -1.6160 ha         1 1EA       0.129500
@<TRIPOS>BOND
     1     1     2 1   
     2     2     3 1   
     3     2     4 1   
     4     4     5 ar  
     5     4    14 ar  
     6     5     6 ar  
     7     5    11 ar  
     8     6     7 ar  
     9     6    32 1   
    10     7     8 1   
    11     7     9 ar  
    12     9    10 ar  
    13     9    33 1   
    14    10    11 ar  
    15    10    34 1   
    16    11    12 ar  
    17    12    13 ar  
    18    13    14 ar  
    19    13    15 1   
    20    14    35 1   
    21    15    16 ar  
    22    15    23 ar  
    23    16    17 ar  
    24    16    36 1   
    25    17    18 1   
    26    17    21 ar  
    27    18    19 1   
    28    18    20 1   
    29    18    37 1   
    30    19    38 1   
    31    19    39 1   
    32    19    40 1   
    33    20    41 1   
    34    20    42 1   
    35    20    43 1   
    36    21    22 ar  
    37    21    25 1   
    38    22    23 ar  
    39    22    44 1   
    40    23    24 1   
    41    24    45 1   
    42    24    46 1   
    43    24    47 1   
    44    25    26 1   
    45    26    27 ar  
    46    26    31 ar  
    47    27    28 ar  
    48    27    48 1   
    49    28    29 ar  
    50    28    49 1   
    51    29    30 ar  
    52    29    50 1   
    53    30    31 ar  
    54    30    51 1   
    55    31    52 1   
@<TRIPOS>SUBSTRUCTURE
     1 1EA         1 TEMP              0 ****  ****    0 ROOT
