@<TRIPOS>MOLECULE
1EB
   25    26     1     0     0
SMALL
abcg2


@<TRIPOS>ATOM
      1 C1           0.3460    -0.8650     0.2130 ca         1 1EB      -0.174500
      2 C2           1.7200    -1.0100     0.2250 ca         1 1EB      -0.011500
      3 C3           2.5400     0.0970     0.0570 ca         1 1EB      -0.219200
      4 C4           1.9940     1.3620    -0.1240 ca         1 1EB      -0.011500
      5 C5           0.6250     1.5060    -0.1340 ca         1 1EB      -0.174500
      6 C6          -0.2220     0.4020     0.0330 ca         1 1EB       0.035000
      7 N7          -1.5820     0.6560     0.0110 ns         1 1EB      -0.143000
      8 C8          -2.6300    -0.2190     0.0960 c          1 1EB       0.644100
      9 O9          -2.4910    -1.4230     0.2130 o          1 1EB      -0.569100
     10 C10         -3.9590     0.4350     0.0300 cx         1 1EB      -0.258700
     11 C11         -5.0700    -0.3060    -0.6720 cx         1 1EB      -0.090400
     12 C12         -5.0880    -0.1960     0.8060 cx         1 1EB      -0.090400
     13 N13          3.9750    -0.0680     0.0700 no         1 1EB       0.701200
     14 O14          4.4230    -1.1810     0.2310 o          1 1EB      -0.405000
     15 O15          4.6640     0.9160    -0.0830 o          1 1EB      -0.405000
     16 H1          -0.2710    -1.7370     0.3450 ha         1 1EB       0.141500
     17 H2           2.1380    -1.9950     0.3680 ha         1 1EB       0.151000
     18 H3           2.6200     2.2320    -0.2570 ha         1 1EB       0.151000
     19 H4           0.2010     2.4930    -0.2780 ha         1 1EB       0.141500
     20 H5          -1.8290     1.6280    -0.1020 hn         1 1EB       0.157000
     21 H6          -3.9710     1.5150    -0.0530 hc         1 1EB       0.088700
     22 H7          -5.7600     0.2960    -1.2470 hc         1 1EB       0.085450
     23 H8          -4.8250    -1.2640    -1.1110 hc         1 1EB       0.085450
     24 H9          -4.8530    -1.0780     1.3870 hc         1 1EB       0.085450
     25 H10         -5.7920     0.4810     1.2710 hc         1 1EB       0.085450
@<TRIPOS>BOND
     1     1     2 ar  
     2     1     6 ar  
     3     1    16 1   
     4     2     3 ar  
     5     2    17 1   
     6     3     4 ar  
     7     3    13 1   
     8     4     5 ar  
     9     4    18 1   
    10     5     6 ar  
    11     5    19 1   
    12     6     7 1   
    13     7     8 1   
    14     7    20 1   
    15     8     9 2   
    16     8    10 1   
    17    10    11 1   
    18    10    12 1   
    19    10    21 1   
    20    11    12 1   
    21    11    22 1   
    22    11    23 1   
    23    12    24 1   
    24    12    25 1   
    25    13    14 1   
    26    13    15 1   
@<TRIPOS>SUBSTRUCTURE
     1 1EB         1 TEMP              0 ****  ****    0 ROOT
