@<TRIPOS>MOLECULE
1EB
   25    26     1     0     0
SMALL
No Charge or Current Charge


@<TRIPOS>ATOM
      1 C1           0.3870    -0.8190     0.6940 ca         1 1EB      -0.174500
      2 C2           1.7830    -0.9430     0.5850 ca         1 1EB      -0.011500
      3 C3           2.5420     0.0550    -0.0670 ca         1 1EB      -0.219200
      4 C4           1.8750     1.1770    -0.6070 ca         1 1EB      -0.011500
      5 C5           0.4790     1.2930    -0.4920 ca         1 1EB      -0.174500
      6 C6          -0.2790     0.3030     0.1570 ca         1 1EB       0.035000
      7 N7          -1.6850     0.4940     0.2290 ns         1 1EB      -0.143000
      8 C8          -2.7000    -0.2470     0.8140 c          1 1EB       0.644100
      9 O9          -2.5420    -1.2860     1.4430 o          1 1EB      -0.569100
     10 C10         -4.0730     0.3580     0.6180 cx         1 1EB      -0.258700
     11 C11         -4.6310     0.4680    -0.7880 cx         1 1EB      -0.090400
     12 C12         -5.2160    -0.5370     0.1770 cx         1 1EB      -0.090400
     13 N13          4.0290    -0.0760    -0.1850 no         1 1EB       0.701200
     14 O14          4.5690    -1.0770     0.3030 o          1 1EB      -0.405000
     15 O15          4.6510     0.8240    -0.7650 o          1 1EB      -0.405000
     16 H1          -0.1560    -1.6100     1.2000 ha         1 1EB       0.141500
     17 H2           2.2670    -1.8220     1.0100 ha         1 1EB       0.151000
     18 H3           2.4290     1.9650    -1.1160 ha         1 1EB       0.151000
     19 H4          -0.0150     2.1650    -0.9150 ha         1 1EB       0.141500
     20 H5          -2.0090     1.3290    -0.2390 hn         1 1EB       0.157000
     21 H6          -4.3180     1.1590     1.3100 hc         1 1EB       0.088700
     22 H7          -5.2300     1.3430    -1.0310 hc         1 1EB       0.085450
     23 H8          -4.0380     0.0830    -1.6160 hc         1 1EB       0.085450
     24 H9          -5.0090    -1.5900    -0.0040 hc         1 1EB       0.085450
     25 H10         -6.2050    -0.3340     0.5800 hc         1 1EB       0.085450
@<TRIPOS>BOND
     1     1     2 ar  
     2     1     6 ar  
     3     1    16 1   
     4     2     3 ar  
     5     2    17 1   
     6     3     4 ar  
     7     3    13 1   
     8     4     5 ar  
     9     4    18 1   
    10     5     6 ar  
    11     5    19 1   
    12     6     7 1   
    13     7     8 1   
    14     7    20 1   
    15     8     9 2   
    16     8    10 1   
    17    10    11 1   
    18    10    12 1   
    19    10    21 1   
    20    11    12 1   
    21    11    22 1   
    22    11    23 1   
    23    12    24 1   
    24    12    25 1   
    25    13    14 1   
    26    13    15 1   
@<TRIPOS>SUBSTRUCTURE
     1 1EB         1 TEMP              0 ****  ****    0 ROOT
