@<TRIPOS>MOLECULE
1ED
   41    43     1     0     0
SMALL
No Charge or Current Charge


@<TRIPOS>ATOM
      1 OB           0.8530    -2.7510     1.1270 o          1 1ED      -0.555000
      2 CB           0.6410    -1.5480     1.1390 c          1 1ED       0.562000
      3 CAB         -0.7930    -0.9480     1.0600 c6         1 1ED       0.034700
      4 CBB         -1.3610    -1.1570    -0.3730 c3         1 1ED      -0.039100
      5 CGB         -2.7620    -0.5830    -0.5560 ca         1 1ED      -0.134300
      6 CD4         -2.9530     0.6270    -1.2520 ca         1 1ED      -0.065000
      7 CE4         -4.2460     1.1550    -1.4090 ca         1 1ED      -0.174000
      8 CZB         -5.3530     0.4790    -0.8740 ca         1 1ED       0.144100
      9 OHB         -6.6020     0.9990    -1.0330 oh         1 1ED      -0.531100
     10 CE3         -5.1690    -0.7270    -0.1790 ca         1 1ED      -0.174000
     11 CD3         -3.8770    -1.2570    -0.0190 ca         1 1ED      -0.065000
     12 NB          -0.8670     0.4840     1.4490 ns         1 1ED      -0.494900
     13 CA           0.1600     1.3880     1.3120 c          1 1ED       0.562000
     14 OA          -0.0480     2.5850     1.4430 o          1 1ED      -0.554000
     15 NA           1.6770    -0.6610     1.3140 ns         1 1ED      -0.495900
     16 CAA          1.5860     0.8040     1.0880 c6         1 1ED       0.035700
     17 CBA          2.0730     1.1690    -0.3430 c3         1 1ED      -0.046100
     18 CGA          3.4620     0.6260    -0.6640 ca         1 1ED      -0.095300
     19 CD1          3.6140    -0.4980    -1.5000 ca         1 1ED      -0.105500
     20 CE1          4.8960    -1.0000    -1.7850 ca         1 1ED      -0.108000
     21 CZA          6.0320    -0.3820    -1.2360 ca         1 1ED      -0.106000
     22 CE2          5.8860     0.7380    -0.4010 ca         1 1ED      -0.108000
     23 CD2          4.6040     1.2410    -0.1150 ca         1 1ED      -0.105500
     24 H1          -1.4050    -1.5240     1.7690 h1         1 1ED       0.087700
     25 H2          -0.6780    -0.7090    -1.1060 hc         1 1ED       0.063700
     26 H3          -1.3760    -2.2280    -0.6080 hc         1 1ED       0.063700
     27 H4          -2.1010     1.1610    -1.6680 ha         1 1ED       0.116000
     28 H5          -4.3890     2.0890    -1.9470 ha         1 1ED       0.124500
     29 H6          -7.2450     0.3990    -0.6000 ho         1 1ED       0.466000
     30 H7          -6.0210    -1.2580     0.2400 ha         1 1ED       0.124500
     31 H8          -3.7420    -2.1910     0.5220 ha         1 1ED       0.116000
     32 H9          -1.7800     0.8830     1.6340 hn         1 1ED       0.330500
     33 H10          2.5980    -1.0750     1.4040 hn         1 1ED       0.330500
     34 H11          2.2380     1.3020     1.8200 h1         1 1ED       0.088700
     35 H12          1.3510     0.7980    -1.0810 hc         1 1ED       0.065200
     36 H13          2.0760     2.2600    -0.4620 hc         1 1ED       0.065200
     37 H14          2.7410    -0.9860    -1.9270 ha         1 1ED       0.114500
     38 H15          5.0080    -1.8680    -2.4310 ha         1 1ED       0.115500
     39 H16          7.0240    -0.7710    -1.4570 ha         1 1ED       0.115000
     40 H17          6.7650     1.2170     0.0250 ha         1 1ED       0.115500
     41 H18          4.5000     2.1080     0.5330 ha         1 1ED       0.114500
@<TRIPOS>BOND
     1     1     2 2   
     2     2     3 1   
     3     2    15 1   
     4     3     4 1   
     5     3    12 1   
     6     3    24 1   
     7     4     5 1   
     8     4    25 1   
     9     4    26 1   
    10     5     6 ar  
    11     5    11 ar  
    12     6     7 ar  
    13     6    27 1   
    14     7     8 ar  
    15     7    28 1   
    16     8     9 1   
    17     8    10 ar  
    18     9    29 1   
    19    10    11 ar  
    20    10    30 1   
    21    11    31 1   
    22    12    13 1   
    23    12    32 1   
    24    13    14 2   
    25    13    16 1   
    26    15    16 1   
    27    15    33 1   
    28    16    17 1   
    29    16    34 1   
    30    17    18 1   
    31    17    35 1   
    32    17    36 1   
    33    18    19 ar  
    34    18    23 ar  
    35    19    20 ar  
    36    19    37 1   
    37    20    21 ar  
    38    20    38 1   
    39    21    22 ar  
    40    21    39 1   
    41    22    23 ar  
    42    22    40 1   
    43    23    41 1   
@<TRIPOS>SUBSTRUCTURE
     1 1ED         1 TEMP              0 ****  ****    0 ROOT
