@<TRIPOS>MOLECULE
1ED
   41    43     1     0     0
SMALL
bcc


@<TRIPOS>ATOM
      1 OB           0.6900    -2.7550     1.3460 o          1 1ED      -0.630500
      2 CB           0.5800    -1.5420     1.2680 c          1 1ED       0.704500
      3 CAB         -0.7860    -0.9100     1.0890 c6         1 1ED       0.034700
      4 CBB         -1.2820    -1.1410    -0.3530 c3         1 1ED      -0.039100
      5 CGB         -2.6570    -0.5790    -0.5670 ca         1 1ED      -0.134300
      6 CD4         -2.8440     0.6960    -1.0950 ca         1 1ED      -0.083000
      7 CE4         -4.1100     1.2340    -1.2600 ca         1 1ED      -0.192000
      8 CZB         -5.2310     0.4960    -0.8900 ca         1 1ED       0.144100
      9 OHB         -6.4440     1.0570    -1.0700 oh         1 1ED      -0.492100
     10 CE3         -5.0640    -0.7810    -0.3590 ca         1 1ED      -0.192000
     11 CD3         -3.7890    -1.3030    -0.2010 ca         1 1ED      -0.083000
     12 NB          -0.8040     0.4840     1.4680 ns         1 1ED      -0.561900
     13 CA           0.2320     1.3290     1.4290 c          1 1ED       0.704500
     14 OA           0.1330     2.5270     1.6410 o          1 1ED      -0.629500
     15 NA           1.6200    -0.7010     1.3170 ns         1 1ED      -0.562900
     16 CAA          1.5790     0.7250     1.0870 c6         1 1ED       0.035700
     17 CBA          1.9680     1.1060    -0.3550 c3         1 1ED      -0.046100
     18 CGA          3.3430     0.6130    -0.7040 ca         1 1ED      -0.095300
     19 CD1          3.5210    -0.5940    -1.3760 ca         1 1ED      -0.123500
     20 CE1          4.7950    -1.0660    -1.6620 ca         1 1ED      -0.126000
     21 CZA          5.9110    -0.3370    -1.2750 ca         1 1ED      -0.124000
     22 CE2          5.7450     0.8690    -0.6030 ca         1 1ED      -0.126000
     23 CD2          4.4700     1.3370    -0.3190 ca         1 1ED      -0.123500
     24 H1          -1.4590    -1.4400     1.7660 h1         1 1ED       0.087700
     25 H2          -0.5790    -0.6890    -1.0570 hc         1 1ED       0.063700
     26 H3          -1.2770    -2.2160    -0.5420 hc         1 1ED       0.063700
     27 H4          -1.9830     1.2830    -1.3960 ha         1 1ED       0.134000
     28 H5          -4.2330     2.2250    -1.6810 ha         1 1ED       0.142500
     29 H6          -7.1390     0.4420    -0.8130 ho         1 1ED       0.427000
     30 H7          -5.9270    -1.3710    -0.0720 ha         1 1ED       0.142500
     31 H8          -3.6800    -2.3000     0.2100 ha         1 1ED       0.134000
     32 H9          -1.7080     0.8850     1.6730 hn         1 1ED       0.330500
     33 H10          2.5350    -1.1190     1.4170 hn         1 1ED       0.330500
     34 H11          2.3010     1.1840     1.7650 h1         1 1ED       0.088700
     35 H12          1.2340     0.6950    -1.0530 hc         1 1ED       0.065200
     36 H13          1.9230     2.1930    -0.4420 hc         1 1ED       0.065200
     37 H14          2.6540    -1.1670    -1.6860 ha         1 1ED       0.132500
     38 H15          4.9160    -2.0040    -2.1890 ha         1 1ED       0.133500
     39 H16          6.9050    -0.7020    -1.4970 ha         1 1ED       0.133000
     40 H17          6.6100     1.4470    -0.3050 ha         1 1ED       0.133500
     41 H18          4.3490     2.2800     0.2030 ha         1 1ED       0.132500
@<TRIPOS>BOND
     1     1     2 2   
     2     2     3 1   
     3     2    15 1   
     4     3     4 1   
     5     3    12 1   
     6     3    24 1   
     7     4     5 1   
     8     4    25 1   
     9     4    26 1   
    10     5     6 ar  
    11     5    11 ar  
    12     6     7 ar  
    13     6    27 1   
    14     7     8 ar  
    15     7    28 1   
    16     8     9 1   
    17     8    10 ar  
    18     9    29 1   
    19    10    11 ar  
    20    10    30 1   
    21    11    31 1   
    22    12    13 1   
    23    12    32 1   
    24    13    14 2   
    25    13    16 1   
    26    15    16 1   
    27    15    33 1   
    28    16    17 1   
    29    16    34 1   
    30    17    18 1   
    31    17    35 1   
    32    17    36 1   
    33    18    19 ar  
    34    18    23 ar  
    35    19    20 ar  
    36    19    37 1   
    37    20    21 ar  
    38    20    38 1   
    39    21    22 ar  
    40    21    39 1   
    41    22    23 ar  
    42    22    40 1   
    43    23    41 1   
@<TRIPOS>SUBSTRUCTURE
     1 1ED         1 TEMP              0 ****  ****    0 ROOT
