@<TRIPOS>MOLECULE
1EF
   58    61     1     0     0
SMALL
No Charge or Current Charge


@<TRIPOS>ATOM
      1 CAU          3.3860    -0.8230     0.8860 ca         1 1EF      -0.083000
      2 CAV          3.9010    -2.0670     0.4770 ca         1 1EF      -0.034000
      3 CAZ          3.5650    -3.2400     1.1790 ca         1 1EF      -0.096000
      4 CBA          4.0810    -4.4810     0.7660 ca         1 1EF      -0.106000
      5 CBB          4.9330    -4.5530    -0.3490 ca         1 1EF      -0.104000
      6 CBC          5.2710    -3.3850    -1.0540 ca         1 1EF      -0.098000
      7 CAW          4.7560    -2.1400    -0.6440 ca         1 1EF      -0.029000
      8 CAX          5.0880    -0.9670    -1.3470 ca         1 1EF      -0.090000
      9 CAY          4.5680     0.2730    -0.9360 ca         1 1EF      -0.098000
     10 CAT          3.7150     0.3510     0.1810 ca         1 1EF      -0.092300
     11 CAR          3.1370     1.6950     0.6110 c3         1 1EF      -0.045100
     12 CAQ          1.9480     2.1440    -0.2830 c3         1 1EF       0.096300
     13 CAS          1.3710     3.5250     0.1290 c3         1 1EF      -0.180400
     14 CBD          2.3960     4.6460    -0.0440 c          1 1EF       0.604100
     15 NBF          2.8430     5.2300     1.1350 ns         1 1EF      -0.390400
     16 OBG          3.9870     6.1180     1.1390 oh         1 1EF      -0.414100
     17 OBE          2.7640     5.0230    -1.1480 o          1 1EF      -0.562100
     18 NAB          0.8850     1.1170    -0.3320 na         1 1EF       0.126800
     19 CAC          0.1630     0.6070     0.7190 cc         1 1EF      -0.199000
     20 NAA          0.5110     0.5520    -1.5150 nc         1 1EF      -0.184800
     21 NAE         -0.4280    -0.3120    -1.2360 nd         1 1EF      -0.355000
     22 CAD         -0.6590    -0.3070     0.1240 cd         1 1EF       0.174300
     23 CAF         -1.6900    -1.1950     0.7770 c3         1 1EF       0.085700
     24 NAG         -3.0480    -0.9410     0.2780 ns         1 1EF      -0.502900
     25 CAH         -4.1940    -1.4630     0.8330 c          1 1EF       0.614700
     26 OAJ         -4.1420    -2.1900     1.8170 o          1 1EF      -0.609100
     27 CAI         -5.5050    -1.0940     0.1670 ca         1 1EF      -0.156600
     28 CAK         -5.5650    -0.2510    -0.9710 ca         1 1EF      -0.068500
     29 CAL         -6.8010     0.0690    -1.5600 ca         1 1EF      -0.122500
     30 CAM         -7.9990    -0.4400    -1.0300 ca         1 1EF      -0.052300
     31 CAP         -9.3330    -0.0940    -1.6730 c3         1 1EF      -0.051800
     32 CAN         -7.9490    -1.2790     0.0960 ca         1 1EF      -0.122500
     33 CAO         -6.7170    -1.6020     0.6890 ca         1 1EF      -0.068500
     34 H1           2.7240    -0.7710     1.7470 ha         1 1EF       0.108000
     35 H2           2.9060    -3.1930     2.0430 ha         1 1EF       0.112000
     36 H3           3.8200    -5.3860     1.3110 ha         1 1EF       0.114000
     37 H4           5.3320    -5.5140    -0.6680 ha         1 1EF       0.114000
     38 H5           5.9300    -3.4490    -1.9170 ha         1 1EF       0.114000
     39 H6           5.7450    -1.0140    -2.2120 ha         1 1EF       0.117000
     40 H7           4.8280     1.1720    -1.4890 ha         1 1EF       0.117000
     41 H8           2.8100     1.6520     1.6570 hc         1 1EF       0.061200
     42 H9           3.9290     2.4530     0.5750 hc         1 1EF       0.061200
     43 H10          2.3350     2.2430    -1.3070 h1         1 1EF       0.119700
     44 H11          0.5190     3.7470    -0.5240 hc         1 1EF       0.074200
     45 H12          1.0260     3.4780     1.1690 hc         1 1EF       0.074200
     46 H13          2.6050     4.8000     2.0290 hn         1 1EF       0.339500
     47 H14          3.6710     6.9050     1.6420 ho         1 1EF       0.446000
     48 H15          0.2870     0.9120     1.7490 h4         1 1EF       0.166000
     49 H16         -1.4300    -2.2440     0.5880 h1         1 1EF       0.067700
     50 H17         -1.6690    -1.0280     1.8620 h1         1 1EF       0.067700
     51 H18         -3.1550    -0.3580    -0.5410 hn         1 1EF       0.323500
     52 H19         -4.6650     0.1660    -1.4140 ha         1 1EF       0.123500
     53 H20         -6.8250     0.7160    -2.4340 ha         1 1EF       0.115000
     54 H21         -9.5900    -0.8200    -2.4540 hc         1 1EF       0.045367
     55 H22        -10.1450    -0.0930    -0.9360 hc         1 1EF       0.045367
     56 H23         -9.3080     0.9000    -2.1350 hc         1 1EF       0.045367
     57 H24         -8.8680    -1.6830     0.5150 ha         1 1EF       0.115000
     58 H25         -6.7080    -2.2530     1.5610 ha         1 1EF       0.123500
@<TRIPOS>BOND
     1     1     2 ar  
     2     1    10 ar  
     3     1    34 1   
     4     2     3 ar  
     5     2     7 ar  
     6     3     4 ar  
     7     3    35 1   
     8     4     5 ar  
     9     4    36 1   
    10     5     6 ar  
    11     5    37 1   
    12     6     7 ar  
    13     6    38 1   
    14     7     8 ar  
    15     8     9 ar  
    16     8    39 1   
    17     9    10 ar  
    18     9    40 1   
    19    10    11 1   
    20    11    12 1   
    21    11    41 1   
    22    11    42 1   
    23    12    13 1   
    24    12    18 1   
    25    12    43 1   
    26    13    14 1   
    27    13    44 1   
    28    13    45 1   
    29    14    15 1   
    30    14    17 2   
    31    15    16 1   
    32    15    46 1   
    33    16    47 1   
    34    18    19 1   
    35    18    20 1   
    36    19    22 2   
    37    19    48 1   
    38    20    21 2   
    39    21    22 1   
    40    22    23 1   
    41    23    24 1   
    42    23    49 1   
    43    23    50 1   
    44    24    25 1   
    45    24    51 1   
    46    25    26 2   
    47    25    27 1   
    48    27    28 ar  
    49    27    33 ar  
    50    28    29 ar  
    51    28    52 1   
    52    29    30 ar  
    53    29    53 1   
    54    30    31 1   
    55    30    32 ar  
    56    31    54 1   
    57    31    55 1   
    58    31    56 1   
    59    32    33 ar  
    60    32    57 1   
    61    33    58 1   
@<TRIPOS>SUBSTRUCTURE
     1 1EF         1 TEMP              0 ****  ****    0 ROOT
