@<TRIPOS>MOLECULE
1EF
   58    61     1     0     0
SMALL
abcg2


@<TRIPOS>ATOM
      1 CAU          3.2890    -0.8740     0.9250 ca         1 1EF      -0.083000
      2 CAV          3.8810    -2.0980     0.5370 ca         1 1EF      -0.034000
      3 CAZ          3.5610    -3.3190     1.1740 ca         1 1EF      -0.096000
      4 CBA          4.1500    -4.4890     0.7780 ca         1 1EF      -0.106000
      5 CBB          5.0890    -4.4930    -0.2750 ca         1 1EF      -0.104000
      6 CBC          5.4180    -3.3260    -0.9110 ca         1 1EF      -0.098000
      7 CAW          4.8240    -2.1030    -0.5230 ca         1 1EF      -0.029000
      8 CAX          5.1400    -0.8770    -1.1560 ca         1 1EF      -0.090000
      9 CAY          4.5460     0.2870    -0.7570 ca         1 1EF      -0.098000
     10 CAT          3.6040     0.3030     0.2990 ca         1 1EF      -0.092300
     11 CAR          2.9350     1.5930     0.6740 c3         1 1EF      -0.045100
     12 CAQ          1.8440     1.9820    -0.3310 c3         1 1EF       0.096300
     13 CAS          1.1340     3.2790     0.0490 c3         1 1EF      -0.180400
     14 CBD          2.0910     4.4490    -0.0500 c          1 1EF       0.604100
     15 NBF          2.0970     5.2270     1.0420 ns         1 1EF      -0.390400
     16 OBG          2.9780     6.2560     1.1480 oh         1 1EF      -0.414100
     17 OBE          2.7670     4.6600    -1.0420 o          1 1EF      -0.562100
     18 NAB          0.8860     0.8980    -0.4630 na         1 1EF       0.126800
     19 CAC          0.0670     0.3860     0.4690 cc         1 1EF      -0.199000
     20 NAA          0.8220     0.1970    -1.5820 nc         1 1EF      -0.184800
     21 NAE         -0.0260    -0.7540    -1.4070 nd         1 1EF      -0.355000
     22 CAD         -0.5220    -0.6840    -0.1530 cd         1 1EF       0.174300
     23 CAF         -1.5450    -1.6340     0.3650 c3         1 1EF       0.085700
     24 NAG         -2.8780    -1.2260    -0.0290 ns         1 1EF      -0.502900
     25 CAH         -3.9620    -1.3990     0.7490 c          1 1EF       0.614700
     26 OAJ         -3.9100    -1.9220     1.8550 o          1 1EF      -0.609100
     27 CAI         -5.2540    -0.9100     0.1830 ca         1 1EF      -0.156600
     28 CAK         -5.3300     0.1320    -0.7380 ca         1 1EF      -0.068500
     29 CAL         -6.5590     0.5630    -1.2130 ca         1 1EF      -0.122500
     30 CAM         -7.7440    -0.0350    -0.7910 ca         1 1EF      -0.052300
     31 CAP         -9.0710     0.4090    -1.3310 c3         1 1EF      -0.051800
     32 CAN         -7.6600    -1.0710     0.1390 ca         1 1EF      -0.122500
     33 CAO         -6.4370    -1.4970     0.6260 ca         1 1EF      -0.068500
     34 H1           2.5690    -0.8820     1.7370 ha         1 1EF       0.108000
     35 H2           2.8400    -3.3170     1.9830 ha         1 1EF       0.112000
     36 H3           3.9000    -5.4180     1.2740 ha         1 1EF       0.114000
     37 H4           5.5500    -5.4250    -0.5770 ha         1 1EF       0.114000
     38 H5           6.1380    -3.3270    -1.7200 ha         1 1EF       0.114000
     39 H6           5.8630    -0.8720    -1.9620 ha         1 1EF       0.117000
     40 H7           4.8010     1.2170    -1.2520 ha         1 1EF       0.117000
     41 H8           2.5010     1.5260     1.6760 hc         1 1EF       0.061200
     42 H9           3.6730     2.3980     0.7080 hc         1 1EF       0.061200
     43 H10          2.2830     2.0930    -1.3240 h1         1 1EF       0.119700
     44 H11          0.3160     3.4630    -0.6510 hc         1 1EF       0.074200
     45 H12          0.6950     3.2020     1.0460 hc         1 1EF       0.074200
     46 H13          1.6130     4.9810     1.8940 hn         1 1EF       0.339500
     47 H14          2.5030     7.0510     0.8720 ho         1 1EF       0.446000
     48 H15         -0.0340     0.7870     1.4630 h4         1 1EF       0.166000
     49 H16         -1.3280    -2.6420     0.0000 h1         1 1EF       0.067700
     50 H17         -1.5000    -1.6670     1.4520 h1         1 1EF       0.067700
     51 H18         -3.0040    -0.9490    -0.9890 hn         1 1EF       0.323500
     52 H19         -4.4370     0.6440    -1.0760 ha         1 1EF       0.123500
     53 H20         -6.5940     1.3840    -1.9190 ha         1 1EF       0.115000
     54 H21         -9.3770    -0.2200    -2.1690 hc         1 1EF       0.045367
     55 H22         -9.8520     0.3420    -0.5750 hc         1 1EF       0.045367
     56 H23         -9.0340     1.4360    -1.6920 hc         1 1EF       0.045367
     57 H24         -8.5670    -1.5500     0.4890 ha         1 1EF       0.115000
     58 H25         -6.4010    -2.2980     1.3530 ha         1 1EF       0.123500
@<TRIPOS>BOND
     1     1     2 ar  
     2     1    10 ar  
     3     1    34 1   
     4     2     3 ar  
     5     2     7 ar  
     6     3     4 ar  
     7     3    35 1   
     8     4     5 ar  
     9     4    36 1   
    10     5     6 ar  
    11     5    37 1   
    12     6     7 ar  
    13     6    38 1   
    14     7     8 ar  
    15     8     9 ar  
    16     8    39 1   
    17     9    10 ar  
    18     9    40 1   
    19    10    11 1   
    20    11    12 1   
    21    11    41 1   
    22    11    42 1   
    23    12    13 1   
    24    12    18 1   
    25    12    43 1   
    26    13    14 1   
    27    13    44 1   
    28    13    45 1   
    29    14    15 1   
    30    14    17 2   
    31    15    16 1   
    32    15    46 1   
    33    16    47 1   
    34    18    19 1   
    35    18    20 1   
    36    19    22 2   
    37    19    48 1   
    38    20    21 2   
    39    21    22 1   
    40    22    23 1   
    41    23    24 1   
    42    23    49 1   
    43    23    50 1   
    44    24    25 1   
    45    24    51 1   
    46    25    26 2   
    47    25    27 1   
    48    27    28 ar  
    49    27    33 ar  
    50    28    29 ar  
    51    28    52 1   
    52    29    30 ar  
    53    29    53 1   
    54    30    31 1   
    55    30    32 ar  
    56    31    54 1   
    57    31    55 1   
    58    31    56 1   
    59    32    33 ar  
    60    32    57 1   
    61    33    58 1   
@<TRIPOS>SUBSTRUCTURE
     1 1EF         1 TEMP              0 ****  ****    0 ROOT
