@<TRIPOS>MOLECULE
1EG
   53    55     1     0     0
SMALL
No Charge or Current Charge


@<TRIPOS>ATOM
      1 O6           2.0900    -4.1500     0.0850 o          1 1EG      -0.510100
      2 C6           2.6330    -3.0630    -0.0560 c          1 1EG       0.657000
      3 N1           3.8590    -2.9510    -0.6900 nc         1 1EG      -0.789100
      4 C2           4.4680    -1.8210    -0.8700 cd         1 1EG       0.896100
      5 N2           5.6210    -1.8130    -1.4540 nv         1 1EG      -1.060200
      6 N3           4.0120    -0.6210    -0.4580 na         1 1EG      -0.930200
      7 C5           2.0810    -1.7690     0.4130 cc         1 1EG       0.138500
      8 C4           2.7940    -0.6590     0.1930 cd         1 1EG       0.184000
      9 N7           0.9160    -1.4270     1.0720 nc         1 1EG      -0.599000
     10 C8           0.9760    -0.0910     1.2250 cd         1 1EG       0.413400
     11 N9           2.1460     0.4370     0.6690 na         1 1EG      -0.226500
     12 C1           2.5940     1.8240     0.6570 c5         1 1EG       0.316300
     13 O4           1.5510     2.6860     1.1720 os         1 1EG      -0.404000
     14 C7           2.9910     2.3970    -0.7560 c5         1 1EG       0.066300
     15 O2           4.4110     2.3690    -1.0230 oh         1 1EG      -0.723000
     16 C3           2.4410     3.8510    -0.6770 c5         1 1EG       0.113300
     17 O3           3.3670     4.6960     0.0180 oh         1 1EG      -0.696000
     18 C10          1.1270     3.5970     0.1280 c5         1 1EG       0.166300
     19 C9          -0.0410     2.9860    -0.7060 c3         1 1EG       0.176600
     20 O5          -1.1690     2.7840     0.1680 os         1 1EG      -0.561700
     21 SBG         -2.5970     2.3560    -0.5270 s6         1 1EG       1.428500
     22 OAF         -3.6910     2.7410     0.3700 o          1 1EG      -0.540500
     23 OAG         -2.5960     2.7590    -1.9360 o          1 1EG      -0.540500
     24 NAQ         -2.4250     0.7040    -0.4890 ns         1 1EG      -0.619300
     25 C           -2.6060    -0.1290     0.5730 c          1 1EG       0.585100
     26 O           -2.6540     0.2730     1.7270 o          1 1EG      -0.561100
     27 CA          -2.6940    -1.6570     0.2120 c3         1 1EG       0.098500
     28 N           -1.9080    -2.5720     1.1090 n8         1 1EG      -0.980200
     29 CB          -4.1810    -2.1030     0.1450 c3         1 1EG      -0.044400
     30 CG          -4.4130    -3.4990    -0.4950 c3         1 1EG      -0.205400
     31 CD          -5.9180    -3.7870    -0.6030 c          1 1EG       0.717000
     32 OE1         -6.4730    -4.3250     0.3430 o          1 1EG      -0.741000
     33 OE2         -6.5040    -3.4150    -1.6090 o          1 1EG      -0.741000
     34 H1           5.9990    -2.7440    -1.5440 hn         1 1EG       0.497500
     35 H2           6.2710    -1.1280    -1.0990 hn         1 1EG       0.497500
     36 H3           4.5060     0.2380    -0.6740 hn         1 1EG       0.512000
     37 H4           0.2350     0.5360     1.7090 h5         1 1EG       0.093100
     38 H5           3.4560     1.8670     1.3340 h2         1 1EG       0.100700
     39 H6           2.4580     1.8360    -1.5380 h1         1 1EG       0.072700
     40 H7           4.5440     2.5870    -1.9790 ho         1 1EG       0.522000
     41 H8           2.2280     4.2570    -1.6770 h1         1 1EG       0.061700
     42 H9           4.2350     4.2270    -0.0630 ho         1 1EG       0.519000
     43 H10          0.7600     4.5250     0.5860 h1         1 1EG       0.122700
     44 H11         -0.2810     3.6960    -1.5080 h1         1 1EG       0.057700
     45 H12          0.2670     2.0390    -1.1670 h1         1 1EG       0.057700
     46 H15         -2.3970     0.3310    -1.4210 hn         1 1EG       0.353500
     47 H16         -2.2720    -1.7630    -0.7970 h1         1 1EG       0.060700
     48 H17         -0.9140    -2.2920     1.0880 hn         1 1EG       0.417500
     49 H18         -2.1750    -2.3870     2.0830 hn         1 1EG       0.417500
     50 H20         -4.6140    -2.0850     1.1540 hc         1 1EG       0.045200
     51 H21         -4.7370    -1.3610    -0.4410 hc         1 1EG       0.045200
     52 H22         -3.9630    -3.4520    -1.4940 hc         1 1EG       0.030700
     53 H23         -3.9360    -4.2290     0.1700 hc         1 1EG       0.030700
@<TRIPOS>BOND
     1     1     2 2   
     2     2     3 1   
     3     2     7 1   
     4     3     4 2   
     5     4     5 1   
     6     4     6 1   
     7     5    34 1   
     8     5    35 1   
     9     6     8 1   
    10     6    36 1   
    11     7     8 2   
    12     7     9 1   
    13     8    11 1   
    14     9    10 2   
    15    10    11 1   
    16    10    37 1   
    17    11    12 1   
    18    12    13 1   
    19    12    14 1   
    20    12    38 1   
    21    13    18 1   
    22    14    15 1   
    23    14    16 1   
    24    14    39 1   
    25    15    40 1   
    26    16    17 1   
    27    16    18 1   
    28    16    41 1   
    29    17    42 1   
    30    18    19 1   
    31    18    43 1   
    32    19    20 1   
    33    19    44 1   
    34    19    45 1   
    35    20    21 1   
    36    21    22 2   
    37    21    23 2   
    38    21    24 1   
    39    24    25 1   
    40    24    46 1   
    41    25    26 2   
    42    25    27 1   
    43    27    28 1   
    44    27    29 1   
    45    27    47 1   
    46    28    48 1   
    47    28    49 1   
    48    29    30 1   
    49    29    50 1   
    50    29    51 1   
    51    30    31 1   
    52    30    52 1   
    53    30    53 1   
    54    31    32 1   
    55    31    33 1   
@<TRIPOS>SUBSTRUCTURE
     1 1EG         1 TEMP              0 ****  ****    0 ROOT
