@<TRIPOS>MOLECULE
1EG
   53    55     1     0     0
SMALL
abcg2


@<TRIPOS>ATOM
      1 O6           2.0990    -4.1360     0.5970 o          1 1EG      -0.510100
      2 C6           2.6620    -3.0880     0.3060 c          1 1EG       0.657000
      3 N1           3.8520    -3.0840    -0.3830 nc         1 1EG      -0.789100
      4 C2           4.4720    -1.9860    -0.7210 cd         1 1EG       0.896100
      5 N2           5.6050    -2.0500    -1.4340 nv         1 1EG      -1.060200
      6 N3           4.0250    -0.7310    -0.4150 na         1 1EG      -0.930200
      7 C5           2.1520    -1.7780     0.6500 cc         1 1EG       0.138500
      8 C4           2.8560    -0.6680     0.2720 cd         1 1EG       0.184000
      9 N7           1.0280    -1.3920     1.3310 nc         1 1EG      -0.599000
     10 C8           1.0640    -0.0930     1.3550 cd         1 1EG       0.413400
     11 N9           2.1680     0.4110     0.7100 na         1 1EG      -0.226500
     12 C1           2.5540     1.8140     0.5740 c5         1 1EG       0.316300
     13 O4           1.5400     2.6080     1.0980 os         1 1EG      -0.404000
     14 C7           2.7300     2.2210    -0.8970 c5         1 1EG       0.066300
     15 O2           4.0810     2.1210    -1.2590 oh         1 1EG      -0.723000
     16 C3           2.1670     3.6460    -0.8980 c5         1 1EG       0.113300
     17 O3           3.0870     4.5610    -0.3740 oh         1 1EG      -0.696000
     18 C10          1.0320     3.4980     0.1060 c5         1 1EG       0.166300
     19 C9          -0.2330     2.9670    -0.5360 c3         1 1EG       0.176600
     20 O5          -1.2330     2.9050     0.4970 os         1 1EG      -0.561700
     21 SBG         -2.7160     2.4910     0.0970 s6         1 1EG       1.428500
     22 OAF         -3.4890     2.7420     1.2790 o          1 1EG      -0.540500
     23 OAG         -3.0660     3.0780    -1.1730 o          1 1EG      -0.540500
     24 NAQ         -2.6050     0.8610    -0.1940 ns         1 1EG      -0.619300
     25 C           -2.4300    -0.1050     0.7850 c          1 1EG       0.585100
     26 O           -2.2520     0.1900     1.9410 o          1 1EG      -0.561100
     27 CA          -2.4900    -1.5360     0.2540 c3         1 1EG       0.098500
     28 N           -1.9360    -2.5020     1.1640 n8         1 1EG      -0.980200
     29 CB          -3.9460    -1.8770    -0.1030 c3         1 1EG      -0.044400
     30 CG          -4.0660    -3.2200    -0.8020 c3         1 1EG      -0.205400
     31 CD          -5.4960    -3.6310    -1.1950 c          1 1EG       0.717000
     32 OE1         -6.4310    -2.8670    -0.8820 o          1 1EG      -0.741000
     33 OE2         -5.6010    -4.7170    -1.8030 o          1 1EG      -0.741000
     34 H1           6.0310    -2.9530    -1.5530 hn         1 1EG       0.497500
     35 H2           6.2030    -1.2490    -1.5450 hn         1 1EG       0.497500
     36 H3           4.4920     0.1070    -0.7470 hn         1 1EG       0.512000
     37 H4           0.3370     0.5480     1.8230 h5         1 1EG       0.093100
     38 H5           3.4810     1.9630     1.1380 h2         1 1EG       0.100700
     39 H6           2.1020     1.5880    -1.5360 h1         1 1EG       0.072700
     40 H7           4.1490     2.1220    -2.2210 ho         1 1EG       0.522000
     41 H8           1.8100     3.9390    -1.8930 h1         1 1EG       0.061700
     42 H9           3.9330     4.4330    -0.8190 ho         1 1EG       0.519000
     43 H10          0.8090     4.4500     0.5930 h1         1 1EG       0.122700
     44 H11         -0.5480     3.6510    -1.3250 h1         1 1EG       0.057700
     45 H12         -0.0920     1.9730    -0.9710 h1         1 1EG       0.057700
     46 H15         -2.7340     0.5840    -1.1610 hn         1 1EG       0.353500
     47 H16         -1.9000    -1.5570    -0.6700 h1         1 1EG       0.060700
     48 H17         -0.9590    -2.2950     1.3480 hn         1 1EG       0.417500
     49 H18         -2.4250    -2.4700     2.0510 hn         1 1EG       0.417500
     50 H20         -4.5450    -1.8670     0.8120 hc         1 1EG       0.045200
     51 H21         -4.3630    -1.0970    -0.7430 hc         1 1EG       0.045200
     52 H22         -3.4480    -3.2160    -1.7070 hc         1 1EG       0.030700
     53 H23         -3.6390    -4.0040    -0.1720 hc         1 1EG       0.030700
@<TRIPOS>BOND
     1     1     2 2   
     2     2     3 1   
     3     2     7 1   
     4     3     4 2   
     5     4     5 1   
     6     4     6 1   
     7     5    34 1   
     8     5    35 1   
     9     6     8 1   
    10     6    36 1   
    11     7     8 2   
    12     7     9 1   
    13     8    11 1   
    14     9    10 2   
    15    10    11 1   
    16    10    37 1   
    17    11    12 1   
    18    12    13 1   
    19    12    14 1   
    20    12    38 1   
    21    13    18 1   
    22    14    15 1   
    23    14    16 1   
    24    14    39 1   
    25    15    40 1   
    26    16    17 1   
    27    16    18 1   
    28    16    41 1   
    29    17    42 1   
    30    18    19 1   
    31    18    43 1   
    32    19    20 1   
    33    19    44 1   
    34    19    45 1   
    35    20    21 1   
    36    21    22 2   
    37    21    23 2   
    38    21    24 1   
    39    24    25 1   
    40    24    46 1   
    41    25    26 2   
    42    25    27 1   
    43    27    28 1   
    44    27    29 1   
    45    27    47 1   
    46    28    48 1   
    47    28    49 1   
    48    29    30 1   
    49    29    50 1   
    50    29    51 1   
    51    30    31 1   
    52    30    52 1   
    53    30    53 1   
    54    31    32 1   
    55    31    33 1   
@<TRIPOS>SUBSTRUCTURE
     1 1EG         1 TEMP              0 ****  ****    0 ROOT
