@<TRIPOS>MOLECULE
1EH
   42    45     1     0     0
SMALL
bcc


@<TRIPOS>ATOM
      1 CAB         -6.0980     0.8530     0.1790 ca         1 1EH      -0.225300
      2 CAE         -6.9150     1.1850    -0.8900 ca         1 1EH       0.510300
      3 CL          -8.5690     1.6090    -0.5680 cl         1 1EH      -0.173000
      4 NAH         -6.5410     1.2120    -2.1440 nb         1 1EH      -0.657000
      5 CAF         -5.2750     0.8880    -2.4010 ca         1 1EH       0.415200
      6 CAC         -4.3650     0.5350    -1.4220 ca         1 1EH      -0.234300
      7 CAA         -4.7810     0.5150    -0.0950 ca         1 1EH      -0.045300
      8 CAD         -3.8670     0.0950     1.0270 c3         1 1EH       0.151300
      9 NAG         -2.4810     0.3970     0.7830 ns         1 1EH      -0.577900
     10 CAM         -2.0350     1.6680     0.7980 c          1 1EH       0.707700
     11 OAP         -2.7740     2.6180     1.0070 o          1 1EH      -0.579100
     12 CAL         -0.5960     1.8740     0.5400 cc         1 1EH      -0.150700
     13 SAK          0.4510     0.6720    -0.1120 ss         1 1EH      -0.057800
     14 CAO          0.0810     3.0390     0.7710 cd         1 1EH      -0.078000
     15 CAN          1.4500     2.9550     0.4390 cd         1 1EH      -0.152000
     16 CAJ          1.8110     1.7270    -0.0490 cc         1 1EH      -0.002100
     17 CAV          3.1240     1.3220    -0.5520 ca         1 1EH       0.027000
     18 CAY          3.8200     2.1800    -1.3890 ca         1 1EH      -0.114000
     19 CAX          5.0730     1.8410    -1.9080 ca         1 1EH      -0.110000
     20 CAT          5.6610     0.6290    -1.6130 ca         1 1EH      -0.097000
     21 CAQ          4.9750    -0.2340    -0.7630 ca         1 1EH      -0.021100
     22 SAS          5.5250    -1.7840    -0.2330 ss         1 1EH      -0.062500
     23 CAR          3.7200     0.0870    -0.2140 ca         1 1EH      -0.076800
     24 CAU          3.2530    -0.9440     0.6590 cc         1 1EH      -0.055200
     25 CAW          4.1070    -1.9930     0.7480 cd         1 1EH      -0.138600
     26 CAZ          3.8640    -3.1880     1.5960 c          1 1EH       0.710300
     27 OBB          2.7710    -3.3530     2.1170 o          1 1EH      -0.598100
     28 NBA          4.8860    -4.0420     1.7380 nt         1 1EH      -0.669000
     29 H1          -6.4780     0.8620     1.1920 ha         1 1EH       0.157000
     30 H2          -4.9770     0.9140    -3.4430 h4         1 1EH       0.025100
     31 H3          -3.3500     0.2810    -1.6970 ha         1 1EH       0.147000
     32 H4          -4.2050     0.5460     1.9620 h1         1 1EH       0.062700
     33 H5          -3.9460    -0.9850     1.1540 h1         1 1EH       0.062700
     34 H6          -1.8370    -0.3760     0.7410 hn         1 1EH       0.323500
     35 H7          -0.3870     3.9220     1.1790 ha         1 1EH       0.174000
     36 H8           2.1540     3.7650     0.5660 ha         1 1EH       0.161000
     37 H9           3.3720     3.1250    -1.6670 ha         1 1EH       0.142000
     38 H10          5.5790     2.5370    -2.5640 ha         1 1EH       0.138000
     39 H11          6.6250     0.3620    -2.0230 ha         1 1EH       0.145000
     40 H12          2.3330    -0.9020     1.2230 ha         1 1EH       0.177000
     41 H13          5.8190    -3.8560     1.4100 hn         1 1EH       0.318500
     42 H14          4.7710    -4.8560     2.3200 hn         1 1EH       0.318500
@<TRIPOS>BOND
     1     1     2 ar  
     2     1     7 ar  
     3     1    29 1   
     4     2     3 1   
     5     2     4 ar  
     6     4     5 ar  
     7     5     6 ar  
     8     5    30 1   
     9     6     7 ar  
    10     6    31 1   
    11     7     8 1   
    12     8     9 1   
    13     8    32 1   
    14     8    33 1   
    15     9    10 1   
    16     9    34 1   
    17    10    11 2   
    18    10    12 1   
    19    12    13 1   
    20    12    14 2   
    21    13    16 1   
    22    14    15 1   
    23    14    35 1   
    24    15    16 2   
    25    15    36 1   
    26    16    17 1   
    27    17    18 ar  
    28    17    23 ar  
    29    18    19 ar  
    30    18    37 1   
    31    19    20 ar  
    32    19    38 1   
    33    20    21 ar  
    34    20    39 1   
    35    21    22 1   
    36    21    23 ar  
    37    22    25 1   
    38    23    24 1   
    39    24    25 2   
    40    24    40 1   
    41    25    26 1   
    42    26    27 2   
    43    26    28 1   
    44    28    41 1   
    45    28    42 1   
@<TRIPOS>SUBSTRUCTURE
     1 1EH         1 TEMP              0 ****  ****    0 ROOT
