@<TRIPOS>MOLECULE
1EH
   42    45     1     0     0
SMALL
No Charge or Current Charge


@<TRIPOS>ATOM
      1 CAB         -5.5380     1.6540    -0.2010 ca         1 1EH      -0.142000
      2 CAE         -6.3200     2.0620    -1.2930 ca         1 1EH       0.445000
      3 Cl          -7.1450     3.6140    -1.2640 cl         1 1EH      -0.173000
      4 NAH         -6.4890     1.3180    -2.4090 nb         1 1EH      -0.657000
      5 CAF         -5.8620     0.1200    -2.4580 ca         1 1EH       0.349900
      6 CAC         -5.0590    -0.3680    -1.4120 ca         1 1EH      -0.151000
      7 CAA         -4.8880     0.4080    -0.2520 ca         1 1EH      -0.045300
      8 CAD         -4.0200    -0.0760     0.9010 c3         1 1EH       0.151300
      9 NAG         -2.6250     0.3290     0.7270 ns         1 1EH      -0.510900
     10 CAM         -2.0970     1.5180     1.1670 c          1 1EH       0.640700
     11 OAP         -2.7620     2.3440     1.7740 o          1 1EH      -0.579100
     12 CAL         -0.6710     1.6990     0.8400 cc         1 1EH      -0.295600
     13 SAK          0.3100     0.5250    -0.0400 ss         1 1EH       0.232000
     14 CAO          0.0600     2.8160     1.1830 cd         1 1EH      -0.060000
     15 CAN          1.4160     2.7530     0.7570 cd         1 1EH      -0.134000
     16 CAJ          1.7090     1.5820     0.1050 cc         1 1EH      -0.147000
     17 CAV          3.0380     1.3400    -0.4530 ca         1 1EH       0.027000
     18 CAY          3.6300     2.3010    -1.3010 ca         1 1EH      -0.096000
     19 CAX          4.9030     2.0780    -1.8670 ca         1 1EH      -0.092000
     20 CAT          5.6000     0.8880    -1.5890 ca         1 1EH      -0.079000
     21 CAQ          5.0070    -0.0570    -0.7390 ca         1 1EH      -0.148000
     22 SAS          5.7430    -1.6050    -0.2730 ss         1 1EH       0.064400
     23 CAR          3.7600     0.1580    -0.1790 ca         1 1EH      -0.076800
     24 CAU          3.3570    -0.9240     0.6950 cc         1 1EH      -0.105200
     25 CAW          4.3130    -1.9300     0.7510 cd         1 1EH      -0.138600
     26 CAZ          4.1570    -3.1370     1.6000 c          1 1EH       0.643300
     27 OBB          3.1870    -3.3580     2.3070 o          1 1EH      -0.598100
     28 NBA          5.1770    -4.0190     1.5550 nt         1 1EH      -0.602000
     29 H1          -5.4400     2.3010     0.6650 ha         1 1EH       0.139000
     30 H2          -6.0080    -0.4660    -3.3650 h4         1 1EH       0.025100
     31 H3          -4.5780    -1.3380    -1.5120 ha         1 1EH       0.129000
     32 H4          -4.4040     0.3210     1.8500 h1         1 1EH       0.062700
     33 H5          -4.0640    -1.1710     0.9590 h1         1 1EH       0.062700
     34 H6          -2.0010    -0.2940     0.2310 hn         1 1EH       0.323500
     35 H7          -0.3540     3.6640     1.7230 ha         1 1EH       0.156000
     36 H8           2.1380     3.5440     0.9350 ha         1 1EH       0.143000
     37 H9           3.0970     3.2200    -1.5320 ha         1 1EH       0.124000
     38 H10          5.3450     2.8250    -2.5220 ha         1 1EH       0.120000
     39 H11          6.5820     0.7070    -2.0230 ha         1 1EH       0.127000
     40 H12          2.4400    -0.9500     1.2780 ha         1 1EH       0.227000
     41 H13          5.9780    -3.8360     0.9710 hn         1 1EH       0.318500
     42 H14          5.1270    -4.8590     2.1120 hn         1 1EH       0.318500
@<TRIPOS>BOND
     1     1     2 ar  
     2     1     7 ar  
     3     1    29 1   
     4     2     3 1   
     5     2     4 ar  
     6     4     5 ar  
     7     5     6 ar  
     8     5    30 1   
     9     6     7 ar  
    10     6    31 1   
    11     7     8 1   
    12     8     9 1   
    13     8    32 1   
    14     8    33 1   
    15     9    10 1   
    16     9    34 1   
    17    10    11 2   
    18    10    12 1   
    19    12    13 1   
    20    12    14 2   
    21    13    16 1   
    22    14    15 1   
    23    14    35 1   
    24    15    16 2   
    25    15    36 1   
    26    16    17 1   
    27    17    18 ar  
    28    17    23 ar  
    29    18    19 ar  
    30    18    37 1   
    31    19    20 ar  
    32    19    38 1   
    33    20    21 ar  
    34    20    39 1   
    35    21    22 1   
    36    21    23 ar  
    37    22    25 1   
    38    23    24 1   
    39    24    25 2   
    40    24    40 1   
    41    25    26 1   
    42    26    27 2   
    43    26    28 1   
    44    28    41 1   
    45    28    42 1   
@<TRIPOS>SUBSTRUCTURE
     1 1EH         1 TEMP              0 ****  ****    0 ROOT
