@<TRIPOS>MOLECULE
1EI
   51    53     1     0     0
SMALL
No Charge or Current Charge


@<TRIPOS>ATOM
      1 O6           2.1870    -4.2780     0.2670 o          1 1EI      -0.497000
      2 C6           2.7600    -3.2290     0.0040 c          1 1EI       0.501500
      3 N1           3.9160    -3.1990    -0.7180 ns         1 1EI      -0.432400
      4 C2           4.6090    -2.0550    -1.0470 cc         1 1EI       0.506800
      5 N3           4.2380    -0.8140    -0.7030 nd         1 1EI      -0.613100
      6 C5           2.3260    -1.8710     0.4020 cc         1 1EI       0.139500
      7 C4           3.0580    -0.7720     0.0450 cd         1 1EI       0.102400
      8 N7           1.2190    -1.5000     1.1320 nc         1 1EI      -0.602000
      9 C8           1.2850    -0.1710     1.2230 cd         1 1EI       0.417400
     10 N9           2.4030     0.3230     0.5580 na         1 1EI      -0.168500
     11 C1           2.8130     1.7160     0.4340 c5         1 1EI       0.309300
     12 O4           1.7940     2.6010     0.9610 os         1 1EI      -0.414000
     13 C7           3.0940     2.1870    -1.0370 c5         1 1EI       0.080300
     14 O2           4.4670     2.0370    -1.4390 oh         1 1EI      -0.697000
     15 C3           2.6440     3.6730    -0.9820 c5         1 1EI       0.106300
     16 O3           3.6710     4.4850    -0.3970 oh         1 1EI      -0.702000
     17 C10          1.3760     3.5260    -0.0780 c5         1 1EI       0.166300
     18 C9           0.1160     2.9840    -0.8170 c3         1 1EI       0.186600
     19 O5          -0.9590     2.8710     0.1350 os         1 1EI      -0.551700
     20 SBF         -2.4380     2.4560    -0.4480 s6         1 1EI       1.432500
     21 OAE         -3.4560     2.8340     0.5370 o          1 1EI      -0.543000
     22 OAF         -2.5450     2.8760    -1.8480 o          1 1EI      -0.543000
     23 NAQ         -2.2680     0.8020    -0.4440 ns         1 1EI      -0.625300
     24 C           -2.3640    -0.0440     0.6190 c          1 1EI       0.580100
     25 O           -2.3350     0.3440     1.7780 o          1 1EI      -0.546100
     26 CA          -2.4620    -1.5680     0.2450 c3         1 1EI       0.095500
     27 N           -1.6750    -2.4980     1.1260 n8         1 1EI      -0.982200
     28 CB          -3.9520    -2.0050     0.1860 c3         1 1EI      -0.043400
     29 CG          -4.1980    -3.3930    -0.4670 c3         1 1EI      -0.204400
     30 CD          -5.7060    -3.6700    -0.5650 c          1 1EI       0.717000
     31 OE1         -6.2990    -3.2840    -1.5610 o          1 1EI      -0.740500
     32 OE2         -6.2560    -4.2160     0.3790 o          1 1EI      -0.740500
     33 H1           4.2780    -4.0910    -1.0270 hn         1 1EI       0.327500
     34 H2           5.5010    -2.2590    -1.6260 h5         1 1EI       0.046800
     35 H3           0.5810     0.4760     1.7330 h5         1 1EI       0.058100
     36 H4           3.7210     1.8200     1.0410 h2         1 1EI       0.120700
     37 H5           2.4510     1.6300    -1.7340 h1         1 1EI       0.055700
     38 H6           4.6650     1.0660    -1.3570 ho         1 1EI       0.517000
     39 H7           2.3850     4.0490    -1.9820 h1         1 1EI       0.057700
     40 H8           4.5120     4.0430    -0.6770 ho         1 1EI       0.522000
     41 H9           1.1070     4.4860     0.3820 h1         1 1EI       0.113700
     42 H10         -0.1360     3.6930    -1.6170 h1         1 1EI       0.049700
     43 H11          0.3300     2.0100    -1.2750 h1         1 1EI       0.049700
     44 H14         -2.3030     0.4410    -1.3810 hn         1 1EI       0.350500
     45 H15         -2.0490    -1.6660    -0.7700 h1         1 1EI       0.057700
     46 H16         -0.6760    -2.2360     1.0930 hn         1 1EI       0.413500
     47 H17         -1.9260    -2.3150     2.1040 hn         1 1EI       0.413500
     48 H19         -4.3760    -1.9960     1.1990 hc         1 1EI       0.046200
     49 H20         -4.5110    -1.2540    -0.3860 hc         1 1EI       0.046200
     50 H21         -3.7570    -3.3360    -1.4700 hc         1 1EI       0.029200
     51 H22         -3.7200    -4.1330     0.1850 hc         1 1EI       0.029200
@<TRIPOS>BOND
     1     1     2 2   
     2     2     3 1   
     3     2     6 1   
     4     3     4 1   
     5     3    33 1   
     6     4     5 2   
     7     4    34 1   
     8     5     7 1   
     9     6     7 2   
    10     6     8 1   
    11     7    10 1   
    12     8     9 2   
    13     9    10 1   
    14     9    35 1   
    15    10    11 1   
    16    11    12 1   
    17    11    13 1   
    18    11    36 1   
    19    12    17 1   
    20    13    14 1   
    21    13    15 1   
    22    13    37 1   
    23    14    38 1   
    24    15    16 1   
    25    15    17 1   
    26    15    39 1   
    27    16    40 1   
    28    17    18 1   
    29    17    41 1   
    30    18    19 1   
    31    18    42 1   
    32    18    43 1   
    33    19    20 1   
    34    20    21 2   
    35    20    22 2   
    36    20    23 1   
    37    23    24 1   
    38    23    44 1   
    39    24    25 2   
    40    24    26 1   
    41    26    27 1   
    42    26    28 1   
    43    26    45 1   
    44    27    46 1   
    45    27    47 1   
    46    28    29 1   
    47    28    48 1   
    48    28    49 1   
    49    29    30 1   
    50    29    50 1   
    51    29    51 1   
    52    30    31 1   
    53    30    32 1   
@<TRIPOS>SUBSTRUCTURE
     1 1EI         1 TEMP              0 ****  ****    0 ROOT
