@<TRIPOS>MOLECULE
1EI
   51    53     1     0     0
SMALL
abcg2


@<TRIPOS>ATOM
      1 O6           2.6840    -4.5270     0.2430 o          1 1EI      -0.497000
      2 C6           3.1610    -3.4110     0.3290 c          1 1EI       0.501500
      3 N1           4.4500    -3.2000     0.8300 ns         1 1EI      -0.432400
      4 C2           5.0630    -2.0040     0.9670 cc         1 1EI       0.506800
      5 N3           4.5380    -0.8660     0.6450 nd         1 1EI      -0.613100
      6 C5           2.5720    -2.1560    -0.0300 cc         1 1EI       0.139500
      7 C4           3.2930    -0.9940     0.1480 cd         1 1EI       0.102400
      8 N7           1.3420    -1.8790    -0.5570 nc         1 1EI      -0.602000
      9 C8           1.3240    -0.5870    -0.6940 cd         1 1EI       0.417400
     10 N9           2.4820     0.0100    -0.2870 na         1 1EI      -0.168500
     11 C1           2.7600     1.4240    -0.2470 c5         1 1EI       0.309300
     12 O4           1.8330     2.0490     0.5990 os         1 1EI      -0.414000
     13 C7           2.6270     2.1140    -1.6050 c5         1 1EI       0.080300
     14 O2           3.8250     2.0000    -2.3080 oh         1 1EI      -0.697000
     15 C3           2.2590     3.5380    -1.1810 c5         1 1EI       0.106300
     16 O3           3.3900     4.2350    -0.7340 oh         1 1EI      -0.702000
     17 C10          1.3600     3.2620     0.0200 c5         1 1EI       0.166300
     18 C9          -0.0910     3.1280    -0.3920 c3         1 1EI       0.186600
     19 O5          -0.8320     2.8090     0.8000 os         1 1EI      -0.551700
     20 SBF         -2.3660     2.4310     0.6640 s6         1 1EI       1.432500
     21 OAE         -2.8480     2.3900     2.0150 o          1 1EI      -0.543000
     22 OAF         -2.9950     3.2570    -0.3360 o          1 1EI      -0.543000
     23 NAQ         -2.3350     0.9050     0.0060 ns         1 1EI      -0.625300
     24 C           -1.9420    -0.2360     0.6930 c          1 1EI       0.580100
     25 O           -1.3700    -0.1700     1.7510 o          1 1EI      -0.546100
     26 CA          -2.3310    -1.5360    -0.0100 c3         1 1EI       0.095500
     27 N           -1.5960    -2.6810     0.4570 n8         1 1EI      -0.982200
     28 CB          -3.8470    -1.7420     0.1550 c3         1 1EI      -0.043400
     29 CG          -4.3570    -2.9150    -0.6640 c3         1 1EI      -0.204400
     30 CD          -5.8700    -3.1750    -0.5710 c          1 1EI       0.717000
     31 OE1         -6.3160    -4.0560    -1.3350 o          1 1EI      -0.740500
     32 OE2         -6.5290    -2.5090     0.2520 o          1 1EI      -0.740500
     33 H1           4.9680    -4.0230     1.1120 hn         1 1EI       0.327500
     34 H2           6.0620    -2.0390     1.3790 h5         1 1EI       0.046800
     35 H3           0.4950    -0.0220    -1.0940 h5         1 1EI       0.058100
     36 H4           3.7810     1.5280     0.1320 h2         1 1EI       0.120700
     37 H5           1.7900     1.6810    -2.1670 h1         1 1EI       0.055700
     38 H6           3.6550     2.1510    -3.2440 ho         1 1EI       0.517000
     39 H7           1.7320     4.0790    -1.9770 h1         1 1EI       0.057700
     40 H8           4.1030     4.0810    -1.3660 ho         1 1EI       0.522000
     41 H9           1.4470     4.0630     0.7600 h1         1 1EI       0.113700
     42 H10         -0.4420     4.0750    -0.8060 h1         1 1EI       0.049700
     43 H11         -0.2290     2.3470    -1.1450 h1         1 1EI       0.049700
     44 H14         -2.7980     0.8190    -0.8920 hn         1 1EI       0.350500
     45 H15         -2.1220    -1.4090    -1.0790 h1         1 1EI       0.057700
     46 H16         -0.6150    -2.5980     0.2160 hn         1 1EI       0.413500
     47 H17         -1.6550    -2.7500     1.4650 hn         1 1EI       0.413500
     48 H19         -4.0670    -1.8920     1.2160 hc         1 1EI       0.046200
     49 H20         -4.3770    -0.8330    -0.1390 hc         1 1EI       0.046200
     50 H21         -4.0940    -2.7670    -1.7170 hc         1 1EI       0.029200
     51 H22         -3.8320    -3.8260    -0.3630 hc         1 1EI       0.029200
@<TRIPOS>BOND
     1     1     2 2   
     2     2     3 1   
     3     2     6 1   
     4     3     4 1   
     5     3    33 1   
     6     4     5 2   
     7     4    34 1   
     8     5     7 1   
     9     6     7 2   
    10     6     8 1   
    11     7    10 1   
    12     8     9 2   
    13     9    10 1   
    14     9    35 1   
    15    10    11 1   
    16    11    12 1   
    17    11    13 1   
    18    11    36 1   
    19    12    17 1   
    20    13    14 1   
    21    13    15 1   
    22    13    37 1   
    23    14    38 1   
    24    15    16 1   
    25    15    17 1   
    26    15    39 1   
    27    16    40 1   
    28    17    18 1   
    29    17    41 1   
    30    18    19 1   
    31    18    42 1   
    32    18    43 1   
    33    19    20 1   
    34    20    21 2   
    35    20    22 2   
    36    20    23 1   
    37    23    24 1   
    38    23    44 1   
    39    24    25 2   
    40    24    26 1   
    41    26    27 1   
    42    26    28 1   
    43    26    45 1   
    44    27    46 1   
    45    27    47 1   
    46    28    29 1   
    47    28    48 1   
    48    28    49 1   
    49    29    30 1   
    50    29    50 1   
    51    29    51 1   
    52    30    31 1   
    53    30    32 1   
@<TRIPOS>SUBSTRUCTURE
     1 1EI         1 TEMP              0 ****  ****    0 ROOT
