@<TRIPOS>MOLECULE
1EK
   37    40     1     0     0
SMALL
bcc


@<TRIPOS>ATOM
      1 C01         -6.1810     0.4800     0.5270 ca         1 1EK      -0.124000
      2 C02         -4.9740     1.0180     0.9260 ca         1 1EK      -0.100000
      3 C03         -3.8100     0.3300     0.5940 ca         1 1EK      -0.041100
      4 C04         -3.8480    -0.8700    -0.1300 ca         1 1EK      -0.066800
      5 C05         -5.0810    -1.3980    -0.5270 ca         1 1EK      -0.080000
      6 C06         -6.2340    -0.7210    -0.1940 ca         1 1EK      -0.140000
      7 S07         -2.1910     0.8030     0.9750 ss         1 1EK      -0.026500
      8 C08         -1.5420    -0.6020     0.1710 cc         1 1EK      -0.063200
      9 C09         -2.5280    -1.3760    -0.3540 cd         1 1EK       0.041200
     10 C10         -0.1190    -0.8710     0.1690 cc         1 1EK       0.419300
     11 N11          0.8520     0.0880     0.0820 na         1 1EK      -0.280800
     12 C12          2.0230    -0.6000     0.1350 cc         1 1EK       0.500800
     13 N13          1.7800    -1.8790     0.2460 nd         1 1EK      -0.388000
     14 N14          0.4370    -2.0430     0.2720 nd         1 1EK      -0.323000
     15 S15          3.5560     0.2140     0.0410 ss         1 1EK      -0.216400
     16 C16          4.6630    -1.2170     0.1120 c3         1 1EK      -0.137300
     17 C17          6.1060    -0.6810     0.0390 c          1 1EK       0.945600
     18 O18          6.9970    -1.5440     0.0570 o          1 1EK      -0.814300
     19 O19          6.2280     0.5550    -0.0310 o          1 1EK      -0.814300
     20 C20          0.6980     1.4880    -0.0990 ca         1 1EK       0.000800
     21 C21          0.9780     2.3460     0.9550 ca         1 1EK      -0.101000
     22 C22          0.8100     3.7110     0.7760 ca         1 1EK      -0.127000
     23 C23          0.3610     4.2050    -0.4420 ca         1 1EK      -0.123000
     24 C24          0.0860     3.3350    -1.4890 ca         1 1EK      -0.127000
     25 C25          0.2600     1.9700    -1.3240 ca         1 1EK      -0.101000
     26 CL2         -2.2700    -2.8180    -1.2380 cl         1 1EK      -0.057400
     27 H1          -7.1000     0.9940     0.7750 ha         1 1EK       0.125000
     28 H2          -4.9340     1.9440     1.4830 ha         1 1EK       0.137000
     29 H3          -5.1250    -2.3240    -1.0850 ha         1 1EK       0.142000
     30 H4          -7.1940    -1.1210    -0.4910 ha         1 1EK       0.127000
     31 H5           4.5000    -1.7700     1.0380 h1         1 1EK       0.063200
     32 H6           4.4570    -1.8950    -0.7180 h1         1 1EK       0.063200
     33 H8           1.3120     1.9500     1.9050 ha         1 1EK       0.152000
     34 H9           1.0240     4.3880     1.5920 ha         1 1EK       0.131000
     35 H10          0.2270     5.2700    -0.5750 ha         1 1EK       0.125000
     36 H11         -0.2620     3.7190    -2.4380 ha         1 1EK       0.131000
     37 H12          0.0550     1.2840    -2.1360 ha         1 1EK       0.152000
@<TRIPOS>BOND
     1     1     2 ar  
     2     1     6 ar  
     3     1    27 1   
     4     2     3 ar  
     5     2    28 1   
     6     3     4 ar  
     7     3     7 1   
     8     4     5 ar  
     9     4     9 1   
    10     5     6 ar  
    11     5    29 1   
    12     6    30 1   
    13     7     8 1   
    14     8     9 2   
    15     8    10 1   
    16     9    26 1   
    17    10    11 1   
    18    10    14 2   
    19    11    12 1   
    20    11    20 1   
    21    12    13 2   
    22    12    15 1   
    23    13    14 1   
    24    15    16 1   
    25    16    17 1   
    26    16    31 1   
    27    16    32 1   
    28    17    18 1   
    29    17    19 1   
    30    20    21 ar  
    31    20    25 ar  
    32    21    22 ar  
    33    21    33 1   
    34    22    23 ar  
    35    22    34 1   
    36    23    24 ar  
    37    23    35 1   
    38    24    25 ar  
    39    24    36 1   
    40    25    37 1   
@<TRIPOS>SUBSTRUCTURE
     1 1EK         1 TEMP              0 ****  ****    0 ROOT
