@<TRIPOS>MOLECULE
1EK
   37    40     1     0     0
SMALL
No Charge or Current Charge


@<TRIPOS>ATOM
      1 C01         -6.3550     0.4600     0.3180 ca         1 1EK      -0.106000
      2 C02         -5.1280     1.1230     0.5150 ca         1 1EK      -0.082000
      3 C03         -3.9350     0.4060     0.3270 ca         1 1EK      -0.168000
      4 C04         -3.9520    -0.9220    -0.0440 ca         1 1EK      -0.066800
      5 C05         -5.1670    -1.6020    -0.2450 ca         1 1EK      -0.062000
      6 C06         -6.3740    -0.9000    -0.0610 ca         1 1EK      -0.122000
      7 S07         -2.2950     1.0730     0.5320 ss         1 1EK       0.100400
      8 C08         -1.5980    -0.5170     0.0870 cc         1 1EK      -0.063200
      9 C09         -2.6040    -1.4420    -0.1750 cd         1 1EK       0.116800
     10 C10         -0.1790    -0.8180     0.0450 cc         1 1EK       0.419300
     11 N11          0.8230     0.1100     0.2830 na         1 1EK      -0.280800
     12 C12          1.9990    -0.5620     0.1330 cc         1 1EK       0.500800
     13 N13          1.7860    -1.8350    -0.1250 nd         1 1EK      -0.388000
     14 N14          0.4130    -1.9950    -0.1740 nd         1 1EK      -0.323000
     15 S15          3.5750     0.2290     0.1810 ss         1 1EK      -0.264300
     16 C16          4.7460    -1.1810    -0.1440 c3         1 1EK      -0.089400
     17 C17          6.2200    -0.7410    -0.1480 c          1 1EK       0.735000
     18 O18          6.8340    -0.7710     0.9090 o          1 1EK      -0.709000
     19 O19          6.7150    -0.3910    -1.2100 o          1 1EK      -0.709000
     20 C20          0.7180     1.4880     0.1180 ca         1 1EK       0.000800
     21 C21          0.8810     2.3420     1.2250 ca         1 1EK      -0.083000
     22 C22          0.7780     3.7340     1.0630 ca         1 1EK      -0.109000
     23 C23          0.5170     4.2770    -0.2070 ca         1 1EK      -0.105000
     24 C24          0.3630     3.4280    -1.3160 ca         1 1EK      -0.109000
     25 C25          0.4660     2.0360    -1.1560 ca         1 1EK      -0.083000
     26 Cl2         -2.3920    -3.1090    -0.6400 cl         1 1EK      -0.133000
     27 H1          -7.2900     0.9980     0.4580 ha         1 1EK       0.107000
     28 H2          -5.1060     2.1700     0.8080 ha         1 1EK       0.119000
     29 H3          -5.1840    -2.6500    -0.5370 ha         1 1EK       0.124000
     30 H4          -7.3240    -1.4070    -0.2120 ha         1 1EK       0.109000
     31 H5           4.6150    -1.9470     0.6300 h1         1 1EK       0.063200
     32 H6           4.5150    -1.6270    -1.1190 h1         1 1EK       0.063200
     33 H8           1.0840     1.9250     2.2090 ha         1 1EK       0.134000
     34 H9           0.9010     4.3920     1.9210 ha         1 1EK       0.113000
     35 H10          0.4380     5.3550    -0.3310 ha         1 1EK       0.107000
     36 H11          0.1650     3.8490    -2.2990 ha         1 1EK       0.113000
     37 H12          0.3480     1.3840    -2.0190 ha         1 1EK       0.134000
@<TRIPOS>BOND
     1     1     2 ar  
     2     1     6 ar  
     3     1    27 1   
     4     2     3 ar  
     5     2    28 1   
     6     3     4 ar  
     7     3     7 1   
     8     4     5 ar  
     9     4     9 1   
    10     5     6 ar  
    11     5    29 1   
    12     6    30 1   
    13     7     8 1   
    14     8     9 2   
    15     8    10 1   
    16     9    26 1   
    17    10    11 1   
    18    10    14 2   
    19    11    12 1   
    20    11    20 1   
    21    12    13 2   
    22    12    15 1   
    23    13    14 1   
    24    15    16 1   
    25    16    17 1   
    26    16    31 1   
    27    16    32 1   
    28    17    18 1   
    29    17    19 1   
    30    20    21 ar  
    31    20    25 ar  
    32    21    22 ar  
    33    21    33 1   
    34    22    23 ar  
    35    22    34 1   
    36    23    24 ar  
    37    23    35 1   
    38    24    25 ar  
    39    24    36 1   
    40    25    37 1   
@<TRIPOS>SUBSTRUCTURE
     1 1EK         1 TEMP              0 ****  ****    0 ROOT
