@<TRIPOS>MOLECULE
1EL
   35    38     1     0     0
SMALL
No Charge or Current Charge


@<TRIPOS>ATOM
      1 C1           4.2160     0.7810     0.0600 ca         1 1EL       0.112100
      2 O1           5.1370     1.7870     0.0310 oh         1 1EL      -0.536100
      3 C2           4.6590    -0.5620     0.1090 ca         1 1EL      -0.110000
      4 C3           3.7300    -1.6220     0.1190 ca         1 1EL      -0.102000
      5 C4           2.3740    -1.2850     0.0950 ca         1 1EL      -0.046200
      6 C5           1.9020     0.0260     0.0700 cp         1 1EL      -0.033000
      7 C6           2.8370     1.0870     0.0320 ca         1 1EL      -0.156000
      8 N7           1.2440    -2.1060     0.0570 na         1 1EL      -0.226600
      9 C8           0.0550    -1.3660    -0.0010 ca         1 1EL       0.042800
     10 C9           0.4290    -0.0210     0.0320 cp         1 1EL      -0.116000
     11 C10         -1.2710    -1.8050    -0.0580 ca         1 1EL      -0.132300
     12 C11         -1.6100    -3.2960    -0.0930 c3         1 1EL      -0.034800
     13 C12         -2.2700    -0.8030    -0.0940 ca         1 1EL      -0.007300
     14 C13         -1.9310     0.5770    -0.0750 ca         1 1EL      -0.224600
     15 C14         -0.5670     0.9900     0.0340 ca         1 1EL       0.070700
     16 C15         -0.1810     2.4570     0.2120 c3         1 1EL      -0.056800
     17 C16         -3.7540    -1.1610    -0.1500 c6         1 1EL      -0.155400
     18 C17         -4.6190    -0.0430     0.3870 c2         1 1EL       0.488200
     19 N18         -4.2710     1.2070     0.3810 ne         1 1EL      -0.633100
     20 C19         -3.0680     1.5690    -0.2180 c          1 1EL       0.705100
     21 O19         -2.9600     2.5940    -0.8710 o          1 1EL      -0.504100
     22 HO1          4.6630     2.6450    -0.0030 ho         1 1EL       0.463000
     23 H2           5.7250    -0.7780     0.1260 ha         1 1EL       0.131000
     24 H3           4.0570    -2.6590     0.1360 ha         1 1EL       0.120000
     25 H6           2.5150     2.1200    -0.0350 ha         1 1EL       0.120000
     26 H11         -2.0200    -3.6260     0.8690 hc         1 1EL       0.039700
     27 H11A        -2.3520    -3.5170    -0.8700 hc         1 1EL       0.039700
     28 H11B        -0.7330    -3.9170    -0.3080 hc         1 1EL       0.039700
     29 H15          0.1630     2.8960    -0.7320 hc         1 1EL       0.056033
     30 H15A        -1.0000     3.0710     0.5980 hc         1 1EL       0.056033
     31 H15B         0.6160     2.5610     0.9550 hc         1 1EL       0.056033
     32 H16         -4.0490    -1.3830    -1.1840 hc         1 1EL       0.079200
     33 H16A        -3.9620    -2.0610     0.4420 hc         1 1EL       0.079200
     34 H17         -5.5680    -0.3190     0.8400 h4         1 1EL       0.022800
     35 HN7          1.2780    -3.1180     0.0680 hn         1 1EL       0.355000
@<TRIPOS>BOND
     1     1     2 1   
     2     1     3 ar  
     3     1     7 ar  
     4     2    22 1   
     5     3     4 ar  
     6     3    23 1   
     7     4     5 ar  
     8     4    24 1   
     9     5     6 ar  
    10     5     8 1   
    11     6     7 ar  
    12     6    10 1   
    13     7    25 1   
    14     8     9 1   
    15     8    35 1   
    16     9    10 ar  
    17     9    11 ar  
    18    10    15 ar  
    19    11    12 1   
    20    11    13 ar  
    21    12    26 1   
    22    12    27 1   
    23    12    28 1   
    24    13    14 ar  
    25    13    17 1   
    26    14    15 ar  
    27    14    20 1   
    28    15    16 1   
    29    16    29 1   
    30    16    30 1   
    31    16    31 1   
    32    17    18 1   
    33    17    32 1   
    34    17    33 1   
    35    18    19 2   
    36    18    34 1   
    37    19    20 1   
    38    20    21 2   
@<TRIPOS>SUBSTRUCTURE
     1 1EL         1 TEMP              0 ****  ****    0 ROOT
