@<TRIPOS>MOLECULE
1EL
   35    38     1     0     0
SMALL
bcc


@<TRIPOS>ATOM
      1 C1           4.1630     0.7730     0.0720 ca         1 1EL       0.112100
      2 O1           5.1400     1.7120     0.0740 oh         1 1EL      -0.497100
      3 C2           4.5740    -0.5670     0.0750 ca         1 1EL      -0.128000
      4 C3           3.6480    -1.5930     0.0560 ca         1 1EL      -0.120000
      5 C4           2.3000    -1.2590     0.0450 ca         1 1EL      -0.046200
      6 C5           1.8650     0.0780     0.0600 cp         1 1EL      -0.033000
      7 C6           2.8160     1.1030     0.0610 ca         1 1EL      -0.174000
      8 N7           1.2030    -2.0860     0.0050 na         1 1EL      -0.176300
      9 C8           0.0660    -1.3400    -0.0120 ca         1 1EL       0.042800
     10 C9           0.4170     0.0310     0.0350 cp         1 1EL      -0.116000
     11 C10         -1.2550    -1.7850    -0.0480 ca         1 1EL      -0.132300
     12 C11         -1.6040    -3.2440    -0.0700 c3         1 1EL      -0.034800
     13 C12         -2.2280    -0.7980    -0.0460 ca         1 1EL      -0.007300
     14 C13         -1.9050     0.5790    -0.0350 ca         1 1EL      -0.224600
     15 C14         -0.5720     1.0150     0.0460 ca         1 1EL       0.070700
     16 C15         -0.1710     2.4510     0.2080 c3         1 1EL      -0.056800
     17 C16         -3.6690    -1.2020    -0.0480 c6         1 1EL      -0.155400
     18 C17         -4.5960    -0.0840     0.2430 c2         1 1EL       0.488200
     19 N18         -4.3110     1.1520     0.1880 ne         1 1EL      -0.633100
     20 C19         -3.0180     1.5300    -0.2110 c          1 1EL       0.705100
     21 O19         -2.8840     2.6330    -0.7000 o          1 1EL      -0.504100
     22 HO1          4.7540     2.5940     0.0720 ho         1 1EL       0.424000
     23 H2           5.6330    -0.7950     0.0840 ha         1 1EL       0.149000
     24 H3           3.9720    -2.6250     0.0470 ha         1 1EL       0.138000
     25 H6           2.5220     2.1440     0.0400 ha         1 1EL       0.138000
     26 H11         -2.0160    -3.5710     0.8870 hc         1 1EL       0.039700
     27 H11A        -2.3500    -3.4640    -0.8340 hc         1 1EL       0.039700
     28 H11B        -0.7430    -3.8750    -0.2810 hc         1 1EL       0.039700
     29 H15          0.1400     2.8930    -0.7420 hc         1 1EL       0.056033
     30 H15A        -0.9660     3.0710     0.6080 hc         1 1EL       0.056033
     31 H15B         0.6720     2.5230     0.8930 hc         1 1EL       0.056033
     32 H16         -3.9620    -1.6380    -1.0120 hc         1 1EL       0.079200
     33 H16A        -3.8580    -1.9930     0.6820 hc         1 1EL       0.079200
     34 H17         -5.6100    -0.3530     0.5290 h4         1 1EL       0.022800
     35 HN7          1.2460    -3.0910    -0.0090 hn         1 1EL       0.304700
@<TRIPOS>BOND
     1     1     2 1   
     2     1     3 ar  
     3     1     7 ar  
     4     2    22 1   
     5     3     4 ar  
     6     3    23 1   
     7     4     5 ar  
     8     4    24 1   
     9     5     6 ar  
    10     5     8 1   
    11     6     7 ar  
    12     6    10 1   
    13     7    25 1   
    14     8     9 1   
    15     8    35 1   
    16     9    10 ar  
    17     9    11 ar  
    18    10    15 ar  
    19    11    12 1   
    20    11    13 ar  
    21    12    26 1   
    22    12    27 1   
    23    12    28 1   
    24    13    14 ar  
    25    13    17 1   
    26    14    15 ar  
    27    14    20 1   
    28    15    16 1   
    29    16    29 1   
    30    16    30 1   
    31    16    31 1   
    32    17    18 1   
    33    17    32 1   
    34    17    33 1   
    35    18    19 2   
    36    18    34 1   
    37    19    20 1   
    38    20    21 2   
@<TRIPOS>SUBSTRUCTURE
     1 1EL         1 TEMP              0 ****  ****    0 ROOT
