@<TRIPOS>MOLECULE
1EM
   81    80     1     0     0
SMALL
bcc


@<TRIPOS>ATOM
      1 O11          5.5640     8.5030    -4.7270 o          1 1EM      -0.531000
      2 C11          6.2210     8.4150    -5.7330 c          1 1EM       0.640100
      3 C12          7.5620     7.7440    -5.8460 c3         1 1EM      -0.138400
      4 C13          8.1050     7.2270    -4.5240 c3         1 1EM      -0.068400
      5 C14          9.4790     6.5900    -4.6870 c3         1 1EM      -0.076400
      6 C15         10.0260     6.0150    -3.3870 c3         1 1EM      -0.075400
      7 C16         11.4190     5.4180    -3.5410 c3         1 1EM      -0.075400
      8 C17         11.9730     4.8360    -2.2480 c3         1 1EM      -0.077400
      9 C18         13.3820     4.2750    -2.3930 c3         1 1EM      -0.074400
     10 C19         13.9150     3.6720    -1.1010 c3         1 1EM      -0.091100
     11 O21          4.5080    12.7290    -7.5230 o          1 1EM      -0.536000
     12 C21          5.4170    12.3000    -8.1910 c          1 1EM       0.644100
     13 C22          6.6430    13.0910    -8.5560 c3         1 1EM      -0.133400
     14 C23          7.5160    13.3430    -7.3220 c3         1 1EM      -0.068400
     15 C24          8.0240    12.0630    -6.6710 c3         1 1EM      -0.080400
     16 C25          9.0130    12.3100    -5.5390 c3         1 1EM      -0.073400
     17 C26          9.5140    11.0120    -4.9190 c3         1 1EM      -0.076400
     18 C27         10.5390    11.2020    -3.8100 c3         1 1EM      -0.073400
     19 C28         11.0430     9.8760    -3.2550 c3         1 1EM      -0.076400
     20 C29         12.0880    10.0200    -2.1560 c3         1 1EM      -0.073400
     21 C30         12.5780     8.6770    -1.6310 c3         1 1EM      -0.075400
     22 C31         13.6480     8.7900    -0.5530 c3         1 1EM      -0.073400
     23 C32         14.1420     7.4370    -0.0590 c3         1 1EM      -0.077400
     24 C33         15.2090     7.5340     1.0240 c3         1 1EM      -0.074400
     25 C34         15.6930     6.1730     1.5050 c3         1 1EM      -0.089100
     26 C41          4.5620     9.5680    -6.9600 c3         1 1EM       0.118400
     27 O41          5.8270     8.9110    -6.9030 os         1 1EM      -0.425900
     28 C42          4.3930    10.1470    -8.3490 c3         1 1EM       0.110100
     29 O42          5.4600    11.0540    -8.6580 os         1 1EM      -0.427900
     30 C43          4.4000     9.0940    -9.4470 c3         1 1EM       0.141400
     31 O43          4.1140     9.6390   -10.7100 oh         1 1EM      -0.590800
     32 H121         8.2640     8.4470    -6.3040 hc         1 1EM       0.071200
     33 H122         7.4660     6.9250    -6.5670 hc         1 1EM       0.071200
     34 H131         8.1710     8.0470    -3.8030 hc         1 1EM       0.055200
     35 H132         7.4120     6.4960    -4.0980 hc         1 1EM       0.055200
     36 H141        10.1800     7.3360    -5.0770 hc         1 1EM       0.037700
     37 H142         9.4280     5.7970    -5.4410 hc         1 1EM       0.037700
     38 H151        10.0540     6.8020    -2.6250 hc         1 1EM       0.040700
     39 H152         9.3400     5.2490    -3.0080 hc         1 1EM       0.040700
     40 H161        11.4010     4.6410    -4.3130 hc         1 1EM       0.037200
     41 H162        12.1010     6.1950    -3.9080 hc         1 1EM       0.037200
     42 H171        11.3040     4.0480    -1.8850 hc         1 1EM       0.038700
     43 H172        11.9760     5.6120    -1.4740 hc         1 1EM       0.038700
     44 H181        14.0520     5.0730    -2.7310 hc         1 1EM       0.036200
     45 H182        13.3940     3.5170    -3.1830 hc         1 1EM       0.036200
     46 H191        13.2980     2.8330    -0.7730 hc         1 1EM       0.032367
     47 H192        13.9230     4.4090    -0.2970 hc         1 1EM       0.032367
     48 H193        14.9360     3.3050    -1.2180 hc         1 1EM       0.032367
     49 H221         6.3160    14.0460    -8.9730 hc         1 1EM       0.071700
     50 H222         7.2210    12.5730    -9.3210 hc         1 1EM       0.071700
     51 H231         6.9580    13.9370    -6.5930 hc         1 1EM       0.052200
     52 H232         8.3640    13.9570    -7.6360 hc         1 1EM       0.052200
     53 H241         8.4960    11.4290    -7.4300 hc         1 1EM       0.042700
     54 H242         7.1810    11.4860    -6.2770 hc         1 1EM       0.042700
     55 H251         9.8640    12.8860    -5.9170 hc         1 1EM       0.039700
     56 H252         8.5420    12.9290    -4.7680 hc         1 1EM       0.039700
     57 H261         8.6610    10.4480    -4.5240 hc         1 1EM       0.036200
     58 H262         9.9510    10.3860    -5.7050 hc         1 1EM       0.036200
     59 H271        10.1020    11.7970    -3.0020 hc         1 1EM       0.038700
     60 H272        11.3860    11.7820    -4.1920 hc         1 1EM       0.038700
     61 H281        11.4600     9.2810    -4.0740 hc         1 1EM       0.036700
     62 H282        10.1920     9.2980    -2.8750 hc         1 1EM       0.036700
     63 H291        11.6730    10.6070    -1.3300 hc         1 1EM       0.037700
     64 H292        12.9390    10.5940    -2.5380 hc         1 1EM       0.037700
     65 H301        11.7250     8.1130    -1.2380 hc         1 1EM       0.037200
     66 H302        12.9670     8.0840    -2.4660 hc         1 1EM       0.037200
     67 H311        14.4960     9.3660    -0.9420 hc         1 1EM       0.037200
     68 H312        13.2550     9.3660     0.2930 hc         1 1EM       0.037200
     69 H321        14.5380     6.8650    -0.9060 hc         1 1EM       0.037700
     70 H322        13.2930     6.8570     0.3190 hc         1 1EM       0.037700
     71 H331        16.0580     8.1110     0.6450 hc         1 1EM       0.036700
     72 H332        14.8140     8.1020     1.8720 hc         1 1EM       0.036700
     73 H341        16.4560     6.2700     2.2780 hc         1 1EM       0.031367
     74 H342        14.8730     5.5860     1.9220 hc         1 1EM       0.031367
     75 H343        16.1240     5.5940     0.6860 hc         1 1EM       0.031367
     76 H411         3.7510     8.8600    -6.7690 h1         1 1EM       0.066700
     77 H412         4.5020    10.3540    -6.2050 h1         1 1EM       0.066700
     78 H42          3.4340    10.6730    -8.3690 h1         1 1EM       0.084700
     79 H431         3.6120     8.3720    -9.2230 h1         1 1EM       0.058200
     80 H432         5.3500     8.5470    -9.4460 h1         1 1EM       0.058200
     81 HO43         4.8690    10.1640   -10.9930 ho         1 1EM       0.411000
@<TRIPOS>BOND
     1     1     2 2   
     2     2     3 1   
     3     2    27 1   
     4     3     4 1   
     5     3    32 1   
     6     3    33 1   
     7     4     5 1   
     8     4    34 1   
     9     4    35 1   
    10     5     6 1   
    11     5    36 1   
    12     5    37 1   
    13     6     7 1   
    14     6    38 1   
    15     6    39 1   
    16     7     8 1   
    17     7    40 1   
    18     7    41 1   
    19     8     9 1   
    20     8    42 1   
    21     8    43 1   
    22     9    10 1   
    23     9    44 1   
    24     9    45 1   
    25    10    46 1   
    26    10    47 1   
    27    10    48 1   
    28    11    12 2   
    29    12    13 1   
    30    12    29 1   
    31    13    14 1   
    32    13    49 1   
    33    13    50 1   
    34    14    15 1   
    35    14    51 1   
    36    14    52 1   
    37    15    16 1   
    38    15    53 1   
    39    15    54 1   
    40    16    17 1   
    41    16    55 1   
    42    16    56 1   
    43    17    18 1   
    44    17    57 1   
    45    17    58 1   
    46    18    19 1   
    47    18    59 1   
    48    18    60 1   
    49    19    20 1   
    50    19    61 1   
    51    19    62 1   
    52    20    21 1   
    53    20    63 1   
    54    20    64 1   
    55    21    22 1   
    56    21    65 1   
    57    21    66 1   
    58    22    23 1   
    59    22    67 1   
    60    22    68 1   
    61    23    24 1   
    62    23    69 1   
    63    23    70 1   
    64    24    25 1   
    65    24    71 1   
    66    24    72 1   
    67    25    73 1   
    68    25    74 1   
    69    25    75 1   
    70    26    27 1   
    71    26    28 1   
    72    26    76 1   
    73    26    77 1   
    74    28    29 1   
    75    28    30 1   
    76    28    78 1   
    77    30    31 1   
    78    30    79 1   
    79    30    80 1   
    80    31    81 1   
@<TRIPOS>SUBSTRUCTURE
     1 1EM         1 TEMP              0 ****  ****    0 ROOT
