@<TRIPOS>MOLECULE
1EM
   81    80     1     0     0
SMALL
No Charge or Current Charge


@<TRIPOS>ATOM
      1 O11          5.4740     8.5130    -4.7210 o          1 1EM      -0.482000
      2 C11          6.1480     8.4420    -5.7400 c          1 1EM       0.591100
      3 C12          7.5120     7.7510    -5.8320 c3         1 1EM      -0.138400
      4 C13          8.0680     7.1880    -4.5020 c3         1 1EM      -0.068400
      5 C14          9.4660     6.5510    -4.6570 c3         1 1EM      -0.076400
      6 C15         10.0140     5.9690    -3.3360 c3         1 1EM      -0.075400
      7 C16         11.4370     5.3870    -3.4760 c3         1 1EM      -0.075400
      8 C17         11.9760     4.7850    -2.1600 c3         1 1EM      -0.077400
      9 C18         13.4190     4.2510    -2.2850 c3         1 1EM      -0.074400
     10 C19         13.9480     3.6280    -0.9780 c3         1 1EM      -0.091100
     11 O21          4.3080    12.7970    -7.4940 o          1 1EM      -0.487000
     12 C21          5.2530    12.4190    -8.1730 c          1 1EM       0.595100
     13 C22          6.4720    13.2890    -8.4900 c3         1 1EM      -0.133400
     14 C23          7.4340    13.4250    -7.2830 c3         1 1EM      -0.068400
     15 C24          7.9750    12.0790    -6.7440 c3         1 1EM      -0.080400
     16 C25          8.9990    12.2630    -5.6020 c3         1 1EM      -0.073400
     17 C26          9.5100    10.9270    -5.0230 c3         1 1EM      -0.076400
     18 C27         10.5620    11.1150    -3.9090 c3         1 1EM      -0.073400
     19 C28         11.0740     9.7770    -3.3340 c3         1 1EM      -0.076400
     20 C29         12.1340     9.9560    -2.2260 c3         1 1EM      -0.073400
     21 C30         12.6440     8.6110    -1.6660 c3         1 1EM      -0.075400
     22 C31         13.7110     8.7740    -0.5630 c3         1 1EM      -0.073400
     23 C32         14.2230     7.4200    -0.0250 c3         1 1EM      -0.077400
     24 C33         15.2940     7.5680     1.0770 c3         1 1EM      -0.074400
     25 C34         15.8040     6.2130     1.6040 c3         1 1EM      -0.089100
     26 C41          4.5060     9.6430    -7.0390 c3         1 1EM       0.141600
     27 O41          5.7770     8.9660    -6.9490 os         1 1EM      -0.449100
     28 C42          4.3230    10.1900    -8.4830 c3         1 1EM       0.133300
     29 O42          5.3450    11.1820    -8.7610 os         1 1EM      -0.451100
     30 C43          4.4280     9.0860    -9.5670 c3         1 1EM       0.164600
     31 O43          4.3470     9.6680   -10.8800 oh         1 1EM      -0.653000
     32 H121         8.2060     8.4500    -6.3110 hc         1 1EM       0.071200
     33 H122         7.4360     6.9780    -6.6050 hc         1 1EM       0.071200
     34 H131         8.1200     7.9960    -3.7610 hc         1 1EM       0.055200
     35 H132         7.3700     6.4380    -4.1090 hc         1 1EM       0.055200
     36 H141        10.1640     7.3060    -5.0390 hc         1 1EM       0.037700
     37 H142         9.4180     5.7530    -5.4090 hc         1 1EM       0.037700
     38 H151        10.0210     6.7530    -2.5690 hc         1 1EM       0.040700
     39 H152         9.3360     5.1830    -2.9810 hc         1 1EM       0.040700
     40 H161        11.4350     4.6100    -4.2510 hc         1 1EM       0.037200
     41 H162        12.1160     6.1770    -3.8190 hc         1 1EM       0.037200
     42 H171        11.3150     3.9690    -1.8410 hc         1 1EM       0.038700
     43 H172        11.9430     5.5470    -1.3720 hc         1 1EM       0.038700
     44 H181        14.0850     5.0690    -2.5850 hc         1 1EM       0.036200
     45 H182        13.4610     3.4970    -3.0810 hc         1 1EM       0.036200
     46 H191        13.3360     2.7650    -0.6850 hc         1 1EM       0.032367
     47 H192        13.9270     4.3580    -0.1610 hc         1 1EM       0.032367
     48 H193        14.9820     3.2870    -1.1080 hc         1 1EM       0.032367
     49 H221         6.1240    14.2900    -8.7690 hc         1 1EM       0.071700
     50 H222         7.0290    12.8440    -9.3230 hc         1 1EM       0.071700
     51 H231         6.9160    13.9540    -6.4720 hc         1 1EM       0.052200
     52 H232         8.2790    14.0580    -7.5800 hc         1 1EM       0.052200
     53 H241         8.4440    11.5210    -7.5630 hc         1 1EM       0.042700
     54 H242         7.1400    11.4700    -6.3760 hc         1 1EM       0.042700
     55 H251         9.8510    12.8450    -5.9750 hc         1 1EM       0.039700
     56 H252         8.5390    12.8500    -4.7960 hc         1 1EM       0.039700
     57 H261         8.6590    10.3630    -4.6220 hc         1 1EM       0.036200
     58 H262         9.9450    10.3260    -5.8320 hc         1 1EM       0.036200
     59 H271        10.1270    11.7130    -3.0990 hc         1 1EM       0.038700
     60 H272        11.4120    11.6830    -4.3080 hc         1 1EM       0.038700
     61 H281        11.5020     9.1770    -4.1460 hc         1 1EM       0.036700
     62 H282        10.2240     9.2140    -2.9290 hc         1 1EM       0.036700
     63 H291        11.7060    10.5490    -1.4090 hc         1 1EM       0.037700
     64 H292        12.9820    10.5240    -2.6270 hc         1 1EM       0.037700
     65 H301        11.7950     8.0460    -1.2630 hc         1 1EM       0.037200
     66 H302        13.0660     8.0180    -2.4860 hc         1 1EM       0.037200
     67 H311        14.5570     9.3470    -0.9610 hc         1 1EM       0.037200
     68 H312        13.2890     9.3560     0.2650 hc         1 1EM       0.037200
     69 H321        14.6430     6.8400    -0.8560 hc         1 1EM       0.037700
     70 H322        13.3760     6.8470     0.3720 hc         1 1EM       0.037700
     71 H331        16.1440     8.1410     0.6850 hc         1 1EM       0.036700
     72 H332        14.8790     8.1430     1.9140 hc         1 1EM       0.036700
     73 H341        16.5630     6.3660     2.3810 hc         1 1EM       0.031367
     74 H342        14.9820     5.6310     2.0380 hc         1 1EM       0.031367
     75 H343        16.2550     5.6260     0.7950 hc         1 1EM       0.031367
     76 H411         3.6850     8.9500    -6.8140 h1         1 1EM       0.066700
     77 H412         4.4500    10.4690    -6.3170 h1         1 1EM       0.066700
     78 H42          3.3220    10.6360    -8.5600 h1         1 1EM       0.084700
     79 H431         3.6200     8.3560    -9.4180 h1         1 1EM       0.058200
     80 H432         5.3800     8.5510    -9.4490 h1         1 1EM       0.058200
     81 HO43         4.9540    10.4420   -10.8610 ho         1 1EM       0.450000
@<TRIPOS>BOND
     1     1     2 2   
     2     2     3 1   
     3     2    27 1   
     4     3     4 1   
     5     3    32 1   
     6     3    33 1   
     7     4     5 1   
     8     4    34 1   
     9     4    35 1   
    10     5     6 1   
    11     5    36 1   
    12     5    37 1   
    13     6     7 1   
    14     6    38 1   
    15     6    39 1   
    16     7     8 1   
    17     7    40 1   
    18     7    41 1   
    19     8     9 1   
    20     8    42 1   
    21     8    43 1   
    22     9    10 1   
    23     9    44 1   
    24     9    45 1   
    25    10    46 1   
    26    10    47 1   
    27    10    48 1   
    28    11    12 2   
    29    12    13 1   
    30    12    29 1   
    31    13    14 1   
    32    13    49 1   
    33    13    50 1   
    34    14    15 1   
    35    14    51 1   
    36    14    52 1   
    37    15    16 1   
    38    15    53 1   
    39    15    54 1   
    40    16    17 1   
    41    16    55 1   
    42    16    56 1   
    43    17    18 1   
    44    17    57 1   
    45    17    58 1   
    46    18    19 1   
    47    18    59 1   
    48    18    60 1   
    49    19    20 1   
    50    19    61 1   
    51    19    62 1   
    52    20    21 1   
    53    20    63 1   
    54    20    64 1   
    55    21    22 1   
    56    21    65 1   
    57    21    66 1   
    58    22    23 1   
    59    22    67 1   
    60    22    68 1   
    61    23    24 1   
    62    23    69 1   
    63    23    70 1   
    64    24    25 1   
    65    24    71 1   
    66    24    72 1   
    67    25    73 1   
    68    25    74 1   
    69    25    75 1   
    70    26    27 1   
    71    26    28 1   
    72    26    76 1   
    73    26    77 1   
    74    28    29 1   
    75    28    30 1   
    76    28    78 1   
    77    30    31 1   
    78    30    79 1   
    79    30    80 1   
    80    31    81 1   
@<TRIPOS>SUBSTRUCTURE
     1 1EM         1 TEMP              0 ****  ****    0 ROOT
