@<TRIPOS>MOLECULE
1EN
   42    46     1     0     0
SMALL
No Charge or Current Charge


@<TRIPOS>ATOM
      1 C1          45.1610    64.0410    80.4120 cc         1 1EN      -0.114000
      2 C2          44.6630    63.6770    81.6630 cd         1 1EN      -0.116000
      3 N3          44.5600    62.2930    81.8590 na         1 1EN       0.021200
      4 C4          44.9590    61.3630    80.9630 cd         1 1EN      -0.105000
      5 C5          45.4740    61.7330    79.6880 cd         1 1EN       0.169100
      6 C6          45.5660    63.0780    79.4120 cc         1 1EN      -0.183000
      7 C7          44.1460    61.6670    83.0000 cd         1 1EN       0.358800
      8 N8          44.2810    60.3550    82.7830 nc         1 1EN      -0.358700
      9 N9          44.7920    60.1620    81.4900 nc         1 1EN      -0.066000
     10 C10         43.6420    62.2310    84.2880 cx         1 1EN      -0.106000
     11 C11         42.2110    62.6680    84.1260 ca         1 1EN      -0.049300
     12 C12         44.1020    61.6330    85.6040 cx         1 1EN      -0.094900
     13 C13         44.5990    62.9930    85.1860 cx         1 1EN      -0.094900
     14 C14         41.8750    64.0320    84.0110 ca         1 1EN      -0.097000
     15 C15         40.5330    64.4200    83.8490 ca         1 1EN      -0.100000
     16 C16         39.5210    63.4480    83.8030 ca         1 1EN       0.123000
     17 C17         39.8480    62.0870    83.9180 ca         1 1EN      -0.100000
     18 C18         41.1890    61.6990    84.0790 ca         1 1EN      -0.097000
     19 Cl19        37.8430    63.9340    83.6010 cl         1 1EN      -0.209000
     20 O20         45.8800    60.8010    78.7760 os         1 1EN      -0.203200
     21 C21         47.2030    60.6340    78.4140 ca         1 1EN       0.045100
     22 C22         48.2810    60.8180    79.3170 ca         1 1EN       0.160000
     23 C23         49.6040    60.6280    78.8830 ca         1 1EN      -0.142000
     24 C24         49.8650    60.2510    77.5540 ca         1 1EN      -0.081000
     25 C25         48.7990    60.0580    76.6590 ca         1 1EN      -0.117000
     26 C26         47.4730    60.2460    77.0890 ca         1 1EN      -0.081000
     27 F27         48.0720    61.1550    80.6110 f          1 1EN      -0.164000
     28 H1          45.2620    65.0950    80.1670 ha         1 1EN       0.134000
     29 H2          44.3590    64.3540    82.4520 h4         1 1EN       0.158000
     30 H3          45.9510    63.4270    78.4600 ha         1 1EN       0.135000
     31 H4          43.3830    61.5860    86.4190 hc         1 1EN       0.085950
     32 H5          44.8090    60.8070    85.5780 hc         1 1EN       0.085950
     33 H6          45.6370    63.0770    84.8710 hc         1 1EN       0.085950
     34 H7          44.2220    63.8530    85.7350 hc         1 1EN       0.085950
     35 H8          42.6480    64.7950    84.0460 ha         1 1EN       0.123500
     36 H9          40.2770    65.4730    83.7610 ha         1 1EN       0.132500
     37 H10         39.0630    61.3360    83.8820 ha         1 1EN       0.132500
     38 H11         41.4360    60.6430    84.1670 ha         1 1EN       0.123500
     39 H12         50.4260    60.7690    79.5800 ha         1 1EN       0.137000
     40 H13         50.8910    60.1050    77.2200 ha         1 1EN       0.123000
     41 H14         49.0000    59.7620    75.6310 ha         1 1EN       0.126000
     42 H15         46.6520    60.0950    76.3920 ha         1 1EN       0.137000
@<TRIPOS>BOND
     1     1     2 2   
     2     1     6 1   
     3     1    28 1   
     4     2     3 1   
     5     2    29 1   
     6     3     4 1   
     7     3     7 1   
     8     4     5 1   
     9     4     9 2   
    10     5     6 2   
    11     5    20 1   
    12     6    30 1   
    13     7     8 2   
    14     7    10 1   
    15     8     9 1   
    16    10    11 1   
    17    10    12 1   
    18    10    13 1   
    19    11    14 ar  
    20    11    18 ar  
    21    12    13 1   
    22    12    31 1   
    23    12    32 1   
    24    13    33 1   
    25    13    34 1   
    26    14    15 ar  
    27    14    35 1   
    28    15    16 ar  
    29    15    36 1   
    30    16    17 ar  
    31    16    19 1   
    32    17    18 ar  
    33    17    37 1   
    34    18    38 1   
    35    20    21 1   
    36    21    22 ar  
    37    21    26 ar  
    38    22    23 ar  
    39    22    27 1   
    40    23    24 ar  
    41    23    39 1   
    42    24    25 ar  
    43    24    40 1   
    44    25    26 ar  
    45    25    41 1   
    46    26    42 1   
@<TRIPOS>SUBSTRUCTURE
     1 1EN         1 TEMP              0 ****  ****    0 ROOT
