@<TRIPOS>MOLECULE
1EN
   42    46     1     0     0
SMALL
abcg2


@<TRIPOS>ATOM
      1 C1          45.3550    63.5650    80.6830 cc         1 1EN      -0.114000
      2 C2          44.7310    63.3270    81.8620 cd         1 1EN      -0.116000
      3 N3          44.8090    62.0550    82.3850 na         1 1EN       0.021200
      4 C4          45.4950    61.0220    81.7710 cd         1 1EN      -0.105000
      5 C5          46.1480    61.2860    80.5360 cd         1 1EN       0.169100
      6 C6          46.0680    62.5380    80.0000 cc         1 1EN      -0.183000
      7 C7          44.2870    61.5040    83.5340 cd         1 1EN       0.358800
      8 N8          44.6430    60.2400    83.5980 nc         1 1EN      -0.358700
      9 N9          45.4030    59.9230    82.5020 nc         1 1EN      -0.066000
     10 C10         43.4940    62.2780    84.5080 cx         1 1EN      -0.106000
     11 C11         42.1910    62.8170    83.9910 ca         1 1EN      -0.049300
     12 C12         43.5560    61.8080    85.9500 cx         1 1EN      -0.094900
     13 C13         44.3060    63.0350    85.5460 cx         1 1EN      -0.094900
     14 C14         41.5830    63.9510    84.5330 ca         1 1EN      -0.097000
     15 C15         40.3530    64.4000    84.0690 ca         1 1EN      -0.100000
     16 C16         39.7210    63.7100    83.0460 ca         1 1EN       0.123000
     17 C17         40.3000    62.5830    82.4810 ca         1 1EN      -0.100000
     18 C18         41.5280    62.1460    82.9590 ca         1 1EN      -0.097000
     19 CL19        38.1710    64.2730    82.4530 cl         1 1EN      -0.209000
     20 O20         46.7870    60.2130    79.9890 os         1 1EN      -0.203200
     21 C21         47.5530    60.4090    78.8530 ca         1 1EN       0.045100
     22 C22         48.8100    60.9970    78.9390 ca         1 1EN       0.160000
     23 C23         49.6120    61.1480    77.8250 ca         1 1EN      -0.142000
     24 C24         49.1500    60.6850    76.5960 ca         1 1EN      -0.081000
     25 C25         47.9000    60.0840    76.4970 ca         1 1EN      -0.117000
     26 C26         47.0980    59.9510    77.6260 ca         1 1EN      -0.081000
     27 F27         49.2440    61.4280    80.1440 f          1 1EN      -0.164000
     28 H1          45.3060    64.5540    80.2510 ha         1 1EN       0.134000
     29 H2          44.1750    64.0570    82.4270 h4         1 1EN       0.158000
     30 H3          46.5500    62.7610    79.0590 ha         1 1EN       0.135000
     31 H4          42.6450    61.9350    86.5190 hc         1 1EN       0.085950
     32 H5          44.1090    60.9030    86.1540 hc         1 1EN       0.085950
     33 H6          45.3810    62.9610    85.4520 hc         1 1EN       0.085950
     34 H7          43.9500    63.9990    85.8770 hc         1 1EN       0.085950
     35 H8          42.0610    64.5090    85.3250 ha         1 1EN       0.123500
     36 H9          39.8960    65.2820    84.4970 ha         1 1EN       0.132500
     37 H10         39.8010    62.0530    81.6820 ha         1 1EN       0.132500
     38 H11         41.9710    61.2630    82.5170 ha         1 1EN       0.123500
     39 H12         50.5820    61.6160    77.9300 ha         1 1EN       0.137000
     40 H13         49.7730    60.7960    75.7190 ha         1 1EN       0.123000
     41 H14         47.5420    59.7240    75.5420 ha         1 1EN       0.126000
     42 H15         46.1190    59.4930    77.5740 ha         1 1EN       0.137000
@<TRIPOS>BOND
     1     1     2 2   
     2     1     6 1   
     3     1    28 1   
     4     2     3 1   
     5     2    29 1   
     6     3     4 1   
     7     3     7 1   
     8     4     5 1   
     9     4     9 2   
    10     5     6 2   
    11     5    20 1   
    12     6    30 1   
    13     7     8 2   
    14     7    10 1   
    15     8     9 1   
    16    10    11 1   
    17    10    12 1   
    18    10    13 1   
    19    11    14 ar  
    20    11    18 ar  
    21    12    13 1   
    22    12    31 1   
    23    12    32 1   
    24    13    33 1   
    25    13    34 1   
    26    14    15 ar  
    27    14    35 1   
    28    15    16 ar  
    29    15    36 1   
    30    16    17 ar  
    31    16    19 1   
    32    17    18 ar  
    33    17    37 1   
    34    18    38 1   
    35    20    21 1   
    36    21    22 ar  
    37    21    26 ar  
    38    22    23 ar  
    39    22    27 1   
    40    23    24 ar  
    41    23    39 1   
    42    24    25 ar  
    43    24    40 1   
    44    25    26 ar  
    45    25    41 1   
    46    26    42 1   
@<TRIPOS>SUBSTRUCTURE
     1 1EN         1 TEMP              0 ****  ****    0 ROOT
