@<TRIPOS>MOLECULE
1EO
   43    47     1     0     0
SMALL
No Charge or Current Charge


@<TRIPOS>ATOM
      1 C1          41.8130    61.5980    85.8010 ca         1 1EO       0.044100
      2 C2          42.7150    62.6940    85.9300 ca         1 1EO       0.162000
      3 C3          42.5120    63.6590    86.9310 ca         1 1EO      -0.143000
      4 C4          41.4290    63.5470    87.8190 ca         1 1EO      -0.081000
      5 C5          40.5510    62.4570    87.7130 ca         1 1EO      -0.118000
      6 C6          40.7480    61.4860    86.7150 ca         1 1EO      -0.082000
      7 C7          43.5530    60.7450    83.0370 cc         1 1EO      -0.107000
      8 C8          45.1140    60.7950    81.4490 cc         1 1EO       0.354800
      9 N9          45.5410    60.0350    82.4560 nd         1 1EO      -0.361700
     10 N10         44.5640    60.0040    83.4500 nd         1 1EO      -0.063000
     11 C11         43.0160    62.0580    81.0510 cc         1 1EO      -0.122000
     12 C12         42.3080    61.0730    83.6300 cc         1 1EO       0.173100
     13 C13         41.4010    61.8520    82.9530 cd         1 1EO      -0.187000
     14 C14         41.7840    62.3440    81.6480 cd         1 1EO      -0.112000
     15 N15         43.8680    61.2420    81.8170 na         1 1EO       0.017200
     16 C16         45.8540    61.1130    80.1510 c5         1 1EO      -0.080300
     17 C17         45.1710    60.5790    78.8440 c5         1 1EO      -0.069400
     18 C18         46.3480    60.5460    77.8170 c5         1 1EO      -0.085400
     19 C19         47.5630    61.0530    78.6560 c5         1 1EO       0.157000
     20 C20         47.3640    62.5840    78.8940 c5         1 1EO      -0.085400
     21 C21         46.1940    62.6290    79.9300 c5         1 1EO      -0.069400
     22 C22         47.2620    60.4660    80.0470 c5         1 1EO      -0.086400
     23 O23         48.8300    60.7010    78.1170 oh         1 1EO      -0.639000
     24 O24         41.9260    60.5840    84.8550 os         1 1EO      -0.203200
     25 F25         43.8050    62.8270    85.1400 f          1 1EO      -0.164000
     26 H1          43.2050    64.4920    87.0230 ha         1 1EO       0.137000
     27 H2          41.2780    64.2970    88.5930 ha         1 1EO       0.123000
     28 H3          39.7170    62.3620    88.4060 ha         1 1EO       0.125000
     29 H4          40.0620    60.6450    86.6410 ha         1 1EO       0.137000
     30 H7          40.4330    62.0910    83.3810 ha         1 1EO       0.135000
     31 H8          41.0790    62.9660    81.1030 ha         1 1EO       0.132000
     32 H9          44.3460    61.2100    78.4960 hc         1 1EO       0.049700
     33 H10         44.7580    59.5740    78.9940 hc         1 1EO       0.049700
     34 H11         46.1550    61.1710    76.9380 hc         1 1EO       0.055700
     35 H12         46.5150    59.5260    77.4500 hc         1 1EO       0.055700
     36 H13         48.2660    63.0490    79.3080 hc         1 1EO       0.055700
     37 H14         47.1250    63.1240    77.9700 hc         1 1EO       0.055700
     38 H15         46.5210    63.1030    80.8630 hc         1 1EO       0.049700
     39 H16         45.3460    63.2150    79.5590 hc         1 1EO       0.049700
     40 H17         47.2410    59.3690    80.0590 hc         1 1EO       0.071200
     41 H18         47.9570    60.8060    80.8250 hc         1 1EO       0.071200
     42 H19         49.5080    61.0270    78.7480 ho         1 1EO       0.446000
     43 H6          43.3340    62.4080    80.0800 h4         1 1EO       0.151000
@<TRIPOS>BOND
     1     1     2 ar  
     2     1     6 ar  
     3     1    24 1   
     4     2     3 ar  
     5     2    25 1   
     6     3     4 ar  
     7     3    26 1   
     8     4     5 ar  
     9     4    27 1   
    10     5     6 ar  
    11     5    28 1   
    12     6    29 1   
    13     7    10 2   
    14     7    12 1   
    15     7    15 1   
    16     8     9 2   
    17     8    15 1   
    18     8    16 1   
    19     9    10 1   
    20    11    14 2   
    21    11    15 1   
    22    11    43 1   
    23    12    13 2   
    24    12    24 1   
    25    13    14 1   
    26    13    30 1   
    27    14    31 1   
    28    16    17 1   
    29    16    21 1   
    30    16    22 1   
    31    17    18 1   
    32    17    32 1   
    33    17    33 1   
    34    18    19 1   
    35    18    34 1   
    36    18    35 1   
    37    19    20 1   
    38    19    22 1   
    39    19    23 1   
    40    20    21 1   
    41    20    36 1   
    42    20    37 1   
    43    21    38 1   
    44    21    39 1   
    45    22    40 1   
    46    22    41 1   
    47    23    42 1   
@<TRIPOS>SUBSTRUCTURE
     1 1EO         1 TEMP              0 ****  ****    0 ROOT
