@<TRIPOS>MOLECULE
1EO
   43    47     1     0     0
SMALL
abcg2


@<TRIPOS>ATOM
      1 C1          42.0910    61.9520    86.0940 ca         1 1EO       0.044100
      2 C2          42.3290    63.1890    86.6800 ca         1 1EO       0.162000
      3 C3          41.4420    63.7420    87.5840 ca         1 1EO      -0.143000
      4 C4          40.2890    63.0330    87.9090 ca         1 1EO      -0.081000
      5 C5          40.0390    61.7930    87.3310 ca         1 1EO      -0.118000
      6 C6          40.9410    61.2520    86.4210 ca         1 1EO      -0.082000
      7 C7          44.1570    61.2780    83.1970 cc         1 1EO      -0.107000
      8 C8          45.3990    60.9680    81.4150 cc         1 1EO       0.354800
      9 N9          45.8880    60.2570    82.4080 nd         1 1EO      -0.361700
     10 N10         45.1220    60.4400    83.5300 nd         1 1EO      -0.063000
     11 C11         43.4080    62.5160    81.2500 cc         1 1EO      -0.122000
     12 C12         43.0830    61.8210    83.9560 cc         1 1EO       0.173100
     13 C13         42.2150    62.6830    83.3560 cd         1 1EO      -0.187000
     14 C14         42.3920    63.0270    81.9840 cd         1 1EO      -0.112000
     15 N15         44.2830    61.6450    81.8660 na         1 1EO       0.017200
     16 C16         45.9510    61.0430    80.0410 c5         1 1EO      -0.080300
     17 C17         45.0040    60.5180    78.9200 c5         1 1EO      -0.069400
     18 C18         45.9780    60.2050    77.7530 c5         1 1EO      -0.085400
     19 C19         47.3440    60.6070    78.3220 c5         1 1EO       0.157000
     20 C20         47.4070    62.1420    78.4290 c5         1 1EO      -0.085400
     21 C21         46.4570    62.4530    79.6150 c5         1 1EO      -0.069400
     22 C22         47.2060    60.1900    79.7960 c5         1 1EO      -0.086400
     23 O23         48.3920    60.0180    77.5730 oh         1 1EO      -0.639000
     24 O24         43.0320    61.3910    85.2490 os         1 1EO      -0.203200
     25 F25         43.4560    63.8580    86.3500 f          1 1EO      -0.164000
     26 H1          41.6610    64.7060    88.0220 ha         1 1EO       0.137000
     27 H2          39.5880    63.4550    88.6170 ha         1 1EO       0.123000
     28 H3          39.1420    61.2440    87.5860 ha         1 1EO       0.125000
     29 H4          40.7680    60.2890    85.9580 ha         1 1EO       0.137000
     30 H7          41.3910    63.1070    83.9110 ha         1 1EO       0.135000
     31 H8          41.6990    63.7100    81.5140 ha         1 1EO       0.132000
     32 H9          44.2510    61.2550    78.6480 hc         1 1EO       0.049700
     33 H10         44.4880    59.6190    79.2580 hc         1 1EO       0.049700
     34 H11         45.7410    60.7570    76.8430 hc         1 1EO       0.055700
     35 H12         45.9830    59.1410    77.5160 hc         1 1EO       0.055700
     36 H13         48.4290    62.4540    78.6510 hc         1 1EO       0.055700
     37 H14         47.0990    62.6220    77.5000 hc         1 1EO       0.055700
     38 H15         46.9940    62.9190    80.4420 hc         1 1EO       0.049700
     39 H16         45.6390    63.1140    79.3330 hc         1 1EO       0.049700
     40 H17         47.0280    59.1210    79.9160 hc         1 1EO       0.071200
     41 H18         48.0560    60.4930    80.4090 hc         1 1EO       0.071200
     42 H19         49.2330    60.3400    77.9220 ho         1 1EO       0.446000
     43 H6          43.5810    62.7410    80.2130 h4         1 1EO       0.151000
@<TRIPOS>BOND
     1     1     2 ar  
     2     1     6 ar  
     3     1    24 1   
     4     2     3 ar  
     5     2    25 1   
     6     3     4 ar  
     7     3    26 1   
     8     4     5 ar  
     9     4    27 1   
    10     5     6 ar  
    11     5    28 1   
    12     6    29 1   
    13     7    10 2   
    14     7    12 1   
    15     7    15 1   
    16     8     9 2   
    17     8    15 1   
    18     8    16 1   
    19     9    10 1   
    20    11    14 2   
    21    11    15 1   
    22    11    43 1   
    23    12    13 2   
    24    12    24 1   
    25    13    14 1   
    26    13    30 1   
    27    14    31 1   
    28    16    17 1   
    29    16    21 1   
    30    16    22 1   
    31    17    18 1   
    32    17    32 1   
    33    17    33 1   
    34    18    19 1   
    35    18    34 1   
    36    18    35 1   
    37    19    20 1   
    38    19    22 1   
    39    19    23 1   
    40    20    21 1   
    41    20    36 1   
    42    20    37 1   
    43    21    38 1   
    44    21    39 1   
    45    22    40 1   
    46    22    41 1   
    47    23    42 1   
@<TRIPOS>SUBSTRUCTURE
     1 1EO         1 TEMP              0 ****  ****    0 ROOT
