@<TRIPOS>MOLECULE
1EP
   45    46     1     0     0
SMALL
abcg2


@<TRIPOS>ATOM
      1 N1           1.6170     0.5460     0.7800 n          1 1EP      -0.386400
      2 C2           2.0820     1.6600     0.0770 c          1 1EP       0.617000
      3 O3           1.6750     2.7920     0.2230 o          1 1EP      -0.552000
      4 N4           3.0400     1.2140    -0.7540 ns         1 1EP      -0.521900
      5 C5           3.2480    -0.2110    -0.6860 c5         1 1EP       0.027700
      6 C6           2.2160    -0.6050     0.3610 c          1 1EP       0.562000
      7 O7           1.9630    -1.7140     0.7690 o          1 1EP      -0.506000
      8 C8           4.6880    -0.6050    -0.3070 c3         1 1EP      -0.058700
      9 C9           4.8850    -2.1160    -0.3740 c3         1 1EP      -0.093100
     10 C10          5.6830     0.0930    -1.2300 c3         1 1EP      -0.093100
     11 C11          0.5530     0.6030     1.7650 c3         1 1EP       0.167300
     12 C12         -0.8020     0.3370     1.1660 ca         1 1EP      -0.126300
     13 C13         -1.5120     1.3500     0.5230 ca         1 1EP      -0.087000
     14 C14         -2.7510     1.0970    -0.0400 ca         1 1EP      -0.117000
     15 C15         -3.3370    -0.1720     0.0140 ca         1 1EP      -0.054300
     16 C16         -2.6190    -1.1750     0.6590 ca         1 1EP      -0.117000
     17 C17         -1.3730    -0.9250     1.2250 ca         1 1EP      -0.087000
     18 C18         -4.7110    -0.3990    -0.6060 c3         1 1EP      -0.000700
     19 C19         -5.7330     0.5030     0.0990 c3         1 1EP      -0.082433
     20 C20         -4.6620    -0.0510    -2.1000 c3         1 1EP      -0.082433
     21 C21         -5.1750    -1.8480    -0.4650 c3         1 1EP      -0.082433
     22 H1           3.4550     1.8110    -1.4500 hn         1 1EP       0.349500
     23 H2           2.9830    -0.6890    -1.6370 h1         1 1EP       0.082700
     24 H3           4.8710    -0.2630     0.7170 hc         1 1EP       0.061700
     25 H4           5.9190    -2.3650    -0.1330 hc         1 1EP       0.041367
     26 H5           4.2450    -2.6540     0.3210 hc         1 1EP       0.041367
     27 H6           4.6820    -2.4900    -1.3800 hc         1 1EP       0.041367
     28 H7           5.6430     1.1780    -1.1420 hc         1 1EP       0.041367
     29 H8           6.7000    -0.2130    -0.9810 hc         1 1EP       0.041367
     30 H9           5.5070    -0.1720    -2.2750 hc         1 1EP       0.041367
     31 H10          0.7790    -0.1260     2.5430 h1         1 1EP       0.070700
     32 H11          0.5860     1.5890     2.2270 h1         1 1EP       0.070700
     33 H12         -1.0950     2.3480     0.4670 ha         1 1EP       0.123500
     34 H13         -3.2700     1.9120    -0.5280 ha         1 1EP       0.113000
     35 H14         -3.0200    -2.1760     0.7350 ha         1 1EP       0.113000
     36 H15         -0.8460    -1.7300     1.7220 ha         1 1EP       0.123500
     37 H16         -5.4940     1.5620    -0.0100 hc         1 1EP       0.035589
     38 H17         -6.7300     0.3490    -0.3200 hc         1 1EP       0.035589
     39 H18         -5.7820     0.2800     1.1670 hc         1 1EP       0.035589
     40 H19         -3.9430    -0.6810    -2.6260 hc         1 1EP       0.035589
     41 H20         -5.6420    -0.2100    -2.5560 hc         1 1EP       0.035589
     42 H21         -4.3830     0.9890    -2.2710 hc         1 1EP       0.035589
     43 H22         -5.2720    -2.1460     0.5810 hc         1 1EP       0.035589
     44 H23         -6.1540    -1.9690    -0.9290 hc         1 1EP       0.035589
     45 H24         -4.4940    -2.5470    -0.9540 hc         1 1EP       0.035589
@<TRIPOS>BOND
     1     1     2 1   
     2     1     6 1   
     3     1    11 1   
     4     2     3 2   
     5     2     4 1   
     6     4     5 1   
     7     4    22 1   
     8     5     6 1   
     9     5     8 1   
    10     5    23 1   
    11     6     7 2   
    12     8     9 1   
    13     8    10 1   
    14     8    24 1   
    15     9    25 1   
    16     9    26 1   
    17     9    27 1   
    18    10    28 1   
    19    10    29 1   
    20    10    30 1   
    21    11    12 1   
    22    11    31 1   
    23    11    32 1   
    24    12    13 ar  
    25    12    17 ar  
    26    13    14 ar  
    27    13    33 1   
    28    14    15 ar  
    29    14    34 1   
    30    15    16 ar  
    31    15    18 1   
    32    16    17 ar  
    33    16    35 1   
    34    17    36 1   
    35    18    19 1   
    36    18    20 1   
    37    18    21 1   
    38    19    37 1   
    39    19    38 1   
    40    19    39 1   
    41    20    40 1   
    42    20    41 1   
    43    20    42 1   
    44    21    43 1   
    45    21    44 1   
    46    21    45 1   
@<TRIPOS>SUBSTRUCTURE
     1 1EP         1 TEMP              0 ****  ****    0 ROOT
