@<TRIPOS>MOLECULE
1EP
   45    46     1     0     0
SMALL
No Charge or Current Charge


@<TRIPOS>ATOM
      1 N1           1.6370     0.5290     0.7210 n          1 1EP      -0.386400
      2 C2           2.0760     1.6150     0.0140 c          1 1EP       0.617000
      3 O3           1.6860     2.7650     0.1160 o          1 1EP      -0.552000
      4 N4           3.0390     1.1830    -0.8430 ns         1 1EP      -0.521900
      5 C5           3.2930    -0.2720    -0.7090 c5         1 1EP       0.027700
      6 C6           2.2600    -0.6640     0.4040 c          1 1EP       0.562000
      7 O7           2.0110    -1.7530     0.9060 o          1 1EP      -0.506000
      8 C8           4.7680    -0.6110    -0.3300 c3         1 1EP      -0.058700
      9 C9           5.0460    -2.1330    -0.2920 c3         1 1EP      -0.093100
     10 C10          5.7950     0.0900    -1.2540 c3         1 1EP      -0.093100
     11 C11          0.5640     0.6190     1.7260 c3         1 1EP       0.167300
     12 C12         -0.8150     0.3510     1.1380 ca         1 1EP      -0.126300
     13 C13         -1.5590     1.3940     0.5630 ca         1 1EP      -0.087000
     14 C14         -2.8270     1.1450     0.0140 ca         1 1EP      -0.117000
     15 C15         -3.3890    -0.1540     0.0230 ca         1 1EP      -0.054300
     16 C16         -2.6260    -1.1970     0.6060 ca         1 1EP      -0.117000
     17 C17         -1.3570    -0.9460     1.1550 ca         1 1EP      -0.087000
     18 C18         -4.7940    -0.3850    -0.5970 c3         1 1EP      -0.000700
     19 C19         -5.8340     0.4940     0.1500 c3         1 1EP      -0.082433
     20 C20         -4.7650     0.0140    -2.0970 c3         1 1EP      -0.082433
     21 C21         -5.2660    -1.8640    -0.5050 c3         1 1EP      -0.082433
     22 H1           3.4910     1.8400    -1.4690 hn         1 1EP       0.349500
     23 H2           3.0160    -0.8060    -1.6280 h1         1 1EP       0.082700
     24 H3           4.9500    -0.2270     0.6820 hc         1 1EP       0.061700
     25 H4           6.0940    -2.3300    -0.0360 hc         1 1EP       0.041367
     26 H5           4.4270    -2.6360     0.4590 hc         1 1EP       0.041367
     27 H6           4.8430    -2.5910    -1.2680 hc         1 1EP       0.041367
     28 H7           5.7110     1.1810    -1.1880 hc         1 1EP       0.041367
     29 H8           6.8200    -0.1770    -0.9690 hc         1 1EP       0.041367
     30 H9           5.6440    -0.2060    -2.3000 hc         1 1EP       0.041367
     31 H10          0.7640    -0.0970     2.5330 h1         1 1EP       0.070700
     32 H11          0.5770     1.6180     2.1820 h1         1 1EP       0.070700
     33 H12         -1.1530     2.4040     0.5380 ha         1 1EP       0.123500
     34 H13         -3.3730     1.9770    -0.4230 ha         1 1EP       0.113000
     35 H14         -2.9960    -2.2170     0.6450 ha         1 1EP       0.113000
     36 H15         -0.7920    -1.7660     1.5930 ha         1 1EP       0.123500
     37 H16         -5.6120     1.5620     0.0450 hc         1 1EP       0.035589
     38 H17         -6.8440     0.3280    -0.2440 hc         1 1EP       0.035589
     39 H18         -5.8450     0.2550     1.2200 hc         1 1EP       0.035589
     40 H19         -4.0090    -0.5690    -2.6370 hc         1 1EP       0.035589
     41 H20         -5.7360    -0.1690    -2.5710 hc         1 1EP       0.035589
     42 H21         -4.5290     1.0760    -2.2290 hc         1 1EP       0.035589
     43 H22         -5.3310    -2.1940     0.5390 hc         1 1EP       0.035589
     44 H23         -6.2600    -1.9860    -0.9510 hc         1 1EP       0.035589
     45 H24         -4.5810    -2.5310    -1.0410 hc         1 1EP       0.035589
@<TRIPOS>BOND
     1     1     2 1   
     2     1     6 1   
     3     1    11 1   
     4     2     3 2   
     5     2     4 1   
     6     4     5 1   
     7     4    22 1   
     8     5     6 1   
     9     5     8 1   
    10     5    23 1   
    11     6     7 2   
    12     8     9 1   
    13     8    10 1   
    14     8    24 1   
    15     9    25 1   
    16     9    26 1   
    17     9    27 1   
    18    10    28 1   
    19    10    29 1   
    20    10    30 1   
    21    11    12 1   
    22    11    31 1   
    23    11    32 1   
    24    12    13 ar  
    25    12    17 ar  
    26    13    14 ar  
    27    13    33 1   
    28    14    15 ar  
    29    14    34 1   
    30    15    16 ar  
    31    15    18 1   
    32    16    17 ar  
    33    16    35 1   
    34    17    36 1   
    35    18    19 1   
    36    18    20 1   
    37    18    21 1   
    38    19    37 1   
    39    19    38 1   
    40    19    39 1   
    41    20    40 1   
    42    20    41 1   
    43    20    42 1   
    44    21    43 1   
    45    21    44 1   
    46    21    45 1   
@<TRIPOS>SUBSTRUCTURE
     1 1EP         1 TEMP              0 ****  ****    0 ROOT
