@<TRIPOS>MOLECULE
1EQ
   38    42     1     0     0
SMALL
abcg2


@<TRIPOS>ATOM
      1 C1           1.9050     0.6500     2.4280 cc         1 1EQ      -0.138000
      2 C2           1.0480    -0.1450     1.7510 cd         1 1EQ      -0.098000
      3 N3           1.3380    -0.4250     0.4420 na         1 1EQ       0.030200
      4 C4           2.4550     0.0450    -0.2080 cd         1 1EQ      -0.099000
      5 C5           3.3710     0.8870     0.4880 cd         1 1EQ       0.005700
      6 C6           3.0650     1.1680     1.7900 cc         1 1EQ      -0.105000
      7 C7           0.6770    -1.1810    -0.4820 cd         1 1EQ       0.342800
      8 N8           1.3520    -1.1630    -1.5990 nc         1 1EQ      -0.351700
      9 N9           2.4550    -0.4120    -1.4440 nc         1 1EQ      -0.107000
     10 C10         -0.6080    -1.8490    -0.2120 cx         1 1EQ      -0.099000
     11 C11         -1.7630    -0.9050    -0.0600 ca         1 1EQ      -0.055300
     12 C12         -0.8390    -3.1660    -0.9000 cx         1 1EQ      -0.099900
     13 C13         -0.5650    -3.1400     0.5660 cx         1 1EQ      -0.099900
     14 C14         -2.0690    -0.0390    -1.1090 ca         1 1EQ      -0.092000
     15 C15         -3.1170     0.8600    -1.0150 ca         1 1EQ      -0.103000
     16 C16         -3.8720     0.8960     0.1490 ca         1 1EQ       0.123000
     17 C17         -3.5880     0.0510     1.2080 ca         1 1EQ      -0.103000
     18 C18         -2.5320    -0.8440     1.0960 ca         1 1EQ      -0.092000
     19 CL19        -5.1870     2.0170     0.2780 cl         1 1EQ      -0.200000
     20 C20          4.5890     1.4350    -0.1390 cx         1 1EQ      -0.103400
     21 C21          4.6540     1.8600    -1.5830 cx         1 1EQ      -0.106900
     22 C22          5.4230     0.6660    -1.1320 cx         1 1EQ      -0.106900
     23 H1           1.7010     0.8880     3.4610 ha         1 1EQ       0.133000
     24 H2           0.1540    -0.5820     2.1660 h4         1 1EQ       0.153000
     25 H3           3.7270     1.8060     2.3620 ha         1 1EQ       0.125000
     26 H4          -1.8500    -3.3720    -1.2250 hc         1 1EQ       0.083950
     27 H5          -0.0680    -3.5280    -1.5670 hc         1 1EQ       0.083950
     28 H6           0.4040    -3.4790     0.9100 hc         1 1EQ       0.083950
     29 H7          -1.3770    -3.3530     1.2480 hc         1 1EQ       0.083950
     30 H8          -1.4810    -0.0670    -2.0190 ha         1 1EQ       0.124500
     31 H9          -3.3440     1.5230    -1.8390 ha         1 1EQ       0.131000
     32 H10         -4.1760     0.0870     2.1150 ha         1 1EQ       0.131000
     33 H11         -2.3140    -1.4960     1.9310 ha         1 1EQ       0.124500
     34 H12          5.1560     2.0570     0.5450 hc         1 1EQ       0.077700
     35 H13          3.7840     1.6930    -2.2010 hc         1 1EQ       0.080950
     36 H14          5.1910     2.7760    -1.7950 hc         1 1EQ       0.080950
     37 H15          6.4970     0.7480    -1.0270 hc         1 1EQ       0.080950
     38 H16          5.0710    -0.3070    -1.4450 hc         1 1EQ       0.080950
@<TRIPOS>BOND
     1     1     2 2   
     2     1     6 1   
     3     1    23 1   
     4     2     3 1   
     5     2    24 1   
     6     3     4 1   
     7     3     7 1   
     8     4     5 1   
     9     4     9 2   
    10     5     6 2   
    11     5    20 1   
    12     6    25 1   
    13     7     8 2   
    14     7    10 1   
    15     8     9 1   
    16    10    11 1   
    17    10    12 1   
    18    10    13 1   
    19    11    14 ar  
    20    11    18 ar  
    21    12    13 1   
    22    12    26 1   
    23    12    27 1   
    24    13    28 1   
    25    13    29 1   
    26    14    15 ar  
    27    14    30 1   
    28    15    16 ar  
    29    15    31 1   
    30    16    17 ar  
    31    16    19 1   
    32    17    18 ar  
    33    17    32 1   
    34    18    33 1   
    35    20    21 1   
    36    20    22 1   
    37    20    34 1   
    38    21    22 1   
    39    21    35 1   
    40    21    36 1   
    41    22    37 1   
    42    22    38 1   
@<TRIPOS>SUBSTRUCTURE
     1 1EQ         1 TEMP              0 ****  ****    0 ROOT
