@<TRIPOS>MOLECULE
1EQ
   38    42     1     0     0
SMALL
No Charge or Current Charge


@<TRIPOS>ATOM
      1 C1           2.0840     0.4330     2.5420 cc         1 1EQ      -0.138000
      2 C2           1.1280    -0.3080     1.8600 cd         1 1EQ      -0.098000
      3 N3           1.3760    -0.4170     0.4890 na         1 1EQ       0.030200
      4 C4           2.4650     0.0920    -0.1430 cd         1 1EQ      -0.099000
      5 C5           3.4710     0.8640     0.5460 cd         1 1EQ       0.005700
      6 C6           3.2370     1.0170     1.9010 cc         1 1EQ      -0.105000
      7 C7           0.6090    -1.1080    -0.4030 cd         1 1EQ       0.342800
      8 N8           1.2240    -1.0170    -1.5830 nc         1 1EQ      -0.351700
      9 N9           2.3890    -0.2550    -1.4190 nc         1 1EQ      -0.107000
     10 C10         -0.6660    -1.8630    -0.2090 cx         1 1EQ      -0.099000
     11 C11         -1.8190    -0.8990    -0.1210 ca         1 1EQ      -0.055300
     12 C12         -0.8590    -3.2050    -0.8880 cx         1 1EQ      -0.099900
     13 C13         -0.6510    -3.1450     0.6040 cx         1 1EQ      -0.099900
     14 C14         -2.2870    -0.2670    -1.2900 ca         1 1EQ      -0.092000
     15 C15         -3.3560     0.6440    -1.2280 ca         1 1EQ      -0.103000
     16 C16         -3.9630     0.9270     0.0050 ca         1 1EQ       0.123000
     17 C17         -3.5050     0.3020     1.1760 ca         1 1EQ      -0.103000
     18 C18         -2.4350    -0.6100     1.1130 ca         1 1EQ      -0.092000
     19 Cl19        -5.3000     2.0670     0.0850 cl         1 1EQ      -0.200000
     20 C20          4.6840     1.4630    -0.1030 cx         1 1EQ      -0.103400
     21 C21          4.6660     2.0360    -1.5040 cx         1 1EQ      -0.106900
     22 C22          5.4450     0.7720    -1.2140 cx         1 1EQ      -0.106900
     23 H1           1.9720     0.5850     3.6110 ha         1 1EQ       0.133000
     24 H2           0.2510    -0.7770     2.2880 h4         1 1EQ       0.153000
     25 H3           3.9310     1.5800     2.5170 ha         1 1EQ       0.125000
     26 H4          -1.8540    -3.4530    -1.2500 hc         1 1EQ       0.083950
     27 H5          -0.0470    -3.5990    -1.4950 hc         1 1EQ       0.083950
     28 H6           0.3040    -3.4900     0.9950 hc         1 1EQ       0.083950
     29 H7          -1.5060    -3.3700     1.2360 hc         1 1EQ       0.083950
     30 H8          -1.8190    -0.4820    -2.2490 ha         1 1EQ       0.124500
     31 H9          -3.7120     1.1290    -2.1330 ha         1 1EQ       0.131000
     32 H10         -3.9770     0.5230     2.1290 ha         1 1EQ       0.131000
     33 H11         -2.0910    -1.0880     2.0270 ha         1 1EQ       0.124500
     34 H12          5.3000     2.0060     0.6110 hc         1 1EQ       0.077700
     35 H13          3.7540     1.9540    -2.0880 hc         1 1EQ       0.080950
     36 H14          5.2310     2.9470    -1.6820 hc         1 1EQ       0.080950
     37 H15          6.5300     0.8400    -1.1980 hc         1 1EQ       0.080950
     38 H16          5.0630    -0.1680    -1.6020 hc         1 1EQ       0.080950
@<TRIPOS>BOND
     1     1     2 2   
     2     1     6 1   
     3     1    23 1   
     4     2     3 1   
     5     2    24 1   
     6     3     4 1   
     7     3     7 1   
     8     4     5 1   
     9     4     9 2   
    10     5     6 2   
    11     5    20 1   
    12     6    25 1   
    13     7     8 2   
    14     7    10 1   
    15     8     9 1   
    16    10    11 1   
    17    10    12 1   
    18    10    13 1   
    19    11    14 ar  
    20    11    18 ar  
    21    12    13 1   
    22    12    26 1   
    23    12    27 1   
    24    13    28 1   
    25    13    29 1   
    26    14    15 ar  
    27    14    30 1   
    28    15    16 ar  
    29    15    31 1   
    30    16    17 ar  
    31    16    19 1   
    32    17    18 ar  
    33    17    32 1   
    34    18    33 1   
    35    20    21 1   
    36    20    22 1   
    37    20    34 1   
    38    21    22 1   
    39    21    35 1   
    40    21    36 1   
    41    22    37 1   
    42    22    38 1   
@<TRIPOS>SUBSTRUCTURE
     1 1EQ         1 TEMP              0 ****  ****    0 ROOT
