@<TRIPOS>MOLECULE
1ER
   34    35     1     0     0
SMALL
No Charge or Current Charge


@<TRIPOS>ATOM
      1 O           -2.6350    -1.7150     1.2850 o          1 1ER      -0.556000
      2 C13         -2.7990    -0.6890     0.6400 c          1 1ER       0.555200
      3 N           -4.0120    -0.0490     0.6220 ns         1 1ER      -0.364100
      4 C12         -4.2990     1.1170    -0.0680 cc         1 1ER      -0.033400
      5 C11         -3.3180     1.7270    -0.8220 cd         1 1ER      -0.295000
      6 C10         -2.0000     1.1450    -0.8820 cd         1 1ER      -0.088000
      7 C9          -1.7510    -0.0210    -0.1730 cc         1 1ER      -0.153400
      8 C8          -0.3890    -0.5480    -0.2920 ca         1 1ER      -0.034800
      9 C7          -0.1780    -1.8740    -0.7040 ca         1 1ER      -0.077000
     10 C6           1.1260    -2.3760    -0.8200 ca         1 1ER      -0.115000
     11 C5           2.2300    -1.5590    -0.5250 ca         1 1ER      -0.103000
     12 C14          0.7220     0.2660     0.0060 ca         1 1ER      -0.103000
     13 C4           2.0480    -0.2170    -0.1050 ca         1 1ER      -0.069300
     14 C1           3.2360     0.7250     0.2350 c3         1 1ER       0.001300
     15 C3           3.1890     1.9650    -0.6980 c3         1 1ER      -0.082433
     16 C2           3.1170     1.1860     1.7130 c3         1 1ER      -0.082433
     17 C            4.6230     0.0460     0.0570 c3         1 1ER      -0.082433
     18 H1          -5.3250     1.4600     0.0520 h4         1 1ER       0.199000
     19 H2          -3.5400     2.6420    -1.3690 ha         1 1ER       0.201000
     20 H3          -1.2210     1.6130    -1.4800 ha         1 1ER       0.189000
     21 H5          -1.0240    -2.5150    -0.9380 ha         1 1ER       0.124000
     22 H6           1.2840    -3.4030    -1.1410 ha         1 1ER       0.112000
     23 H7           3.2190    -1.9930    -0.6300 ha         1 1ER       0.111000
     24 H8           0.5440     1.2870     0.3330 ha         1 1ER       0.107000
     25 H9           2.2720     2.5480    -0.5530 hc         1 1ER       0.034700
     26 H10          4.0370     2.6340    -0.5050 hc         1 1ER       0.034700
     27 H11          3.2320     1.6590    -1.7500 hc         1 1ER       0.034700
     28 H12          3.1100     0.3220     2.3880 hc         1 1ER       0.034700
     29 H13          3.9620     1.8270     1.9930 hc         1 1ER       0.034700
     30 H14          2.1980     1.7580     1.8870 hc         1 1ER       0.034700
     31 H15          4.7740    -0.2800    -0.9800 hc         1 1ER       0.034700
     32 H16          5.4340     0.7420     0.3040 hc         1 1ER       0.034700
     33 H17          4.7260    -0.8250     0.7160 hc         1 1ER       0.034700
     34 H4          -4.7360    -0.4940     1.1750 hn         1 1ER       0.325500
@<TRIPOS>BOND
     1     1     2 2   
     2     2     3 1   
     3     2     7 1   
     4     3     4 1   
     5     3    34 1   
     6     4     5 2   
     7     4    18 1   
     8     5     6 1   
     9     5    19 1   
    10     6     7 2   
    11     6    20 1   
    12     7     8 1   
    13     8     9 ar  
    14     8    12 ar  
    15     9    10 ar  
    16     9    21 1   
    17    10    11 ar  
    18    10    22 1   
    19    11    13 ar  
    20    11    23 1   
    21    12    13 ar  
    22    12    24 1   
    23    13    14 1   
    24    14    15 1   
    25    14    16 1   
    26    14    17 1   
    27    15    25 1   
    28    15    26 1   
    29    15    27 1   
    30    16    28 1   
    31    16    29 1   
    32    16    30 1   
    33    17    31 1   
    34    17    32 1   
    35    17    33 1   
@<TRIPOS>SUBSTRUCTURE
     1 1ER         1 TEMP              0 ****  ****    0 ROOT
