@<TRIPOS>MOLECULE
1ER
   34    35     1     0     0
SMALL
abcg2


@<TRIPOS>ATOM
      1 O           -2.6420    -1.8390     1.0140 o          1 1ER      -0.556000
      2 C13         -2.7680    -0.7390     0.4840 c          1 1ER       0.555200
      3 N           -3.9890    -0.0960     0.5110 ns         1 1ER      -0.364100
      4 C12         -4.2580     1.1180    -0.0170 cc         1 1ER      -0.033400
      5 C11         -3.2820     1.8190    -0.6430 cd         1 1ER      -0.295000
      6 C10         -1.9990     1.2340    -0.7220 cd         1 1ER      -0.088000
      7 C9          -1.7200     0.0040    -0.1910 cc         1 1ER      -0.153400
      8 C8          -0.3630    -0.5690    -0.2710 ca         1 1ER      -0.034800
      9 C7          -0.1460    -1.8900    -0.6710 ca         1 1ER      -0.077000
     10 C6           1.1470    -2.3650    -0.7860 ca         1 1ER      -0.115000
     11 C5           2.2370    -1.5490    -0.4990 ca         1 1ER      -0.103000
     12 C14          0.7390     0.2310     0.0150 ca         1 1ER      -0.103000
     13 C4           2.0520    -0.2320    -0.0920 ca         1 1ER      -0.069300
     14 C1           3.2080     0.7140     0.2190 c3         1 1ER       0.001300
     15 C3           3.1820     1.8720    -0.7880 c3         1 1ER      -0.082433
     16 C2           3.0580     1.2630     1.6430 c3         1 1ER      -0.082433
     17 C            4.5690     0.0240     0.1140 c3         1 1ER      -0.082433
     18 H1          -5.2730     1.4700     0.0950 h4         1 1ER       0.199000
     19 H2          -3.4880     2.7870    -1.0730 ha         1 1ER       0.201000
     20 H3          -1.2120     1.7750    -1.2350 ha         1 1ER       0.189000
     21 H5          -0.9790    -2.5360    -0.9090 ha         1 1ER       0.124000
     22 H6           1.3170    -3.3860    -1.1060 ha         1 1ER       0.112000
     23 H7           3.2320    -1.9610    -0.6020 ha         1 1ER       0.111000
     24 H8           0.5610     1.2480     0.3450 ha         1 1ER       0.107000
     25 H9           2.2560     2.4470    -0.7320 hc         1 1ER       0.034700
     26 H10          4.0090     2.5590    -0.5990 hc         1 1ER       0.034700
     27 H11          3.2820     1.5020    -1.8100 hc         1 1ER       0.034700
     28 H12          3.0900     0.4580     2.3790 hc         1 1ER       0.034700
     29 H13          3.8690     1.9580     1.8690 hc         1 1ER       0.034700
     30 H14          2.1200     1.8030     1.7800 hc         1 1ER       0.034700
     31 H15          4.7600    -0.3600    -0.8900 hc         1 1ER       0.034700
     32 H16          5.3590     0.7410     0.3410 hc         1 1ER       0.034700
     33 H17          4.6650    -0.8050     0.8180 hc         1 1ER       0.034700
     34 H4          -4.7370    -0.5890     0.9810 hn         1 1ER       0.325500
@<TRIPOS>BOND
     1     1     2 2   
     2     2     3 1   
     3     2     7 1   
     4     3     4 1   
     5     3    34 1   
     6     4     5 2   
     7     4    18 1   
     8     5     6 1   
     9     5    19 1   
    10     6     7 2   
    11     6    20 1   
    12     7     8 1   
    13     8     9 ar  
    14     8    12 ar  
    15     9    10 ar  
    16     9    21 1   
    17    10    11 ar  
    18    10    22 1   
    19    11    13 ar  
    20    11    23 1   
    21    12    13 ar  
    22    12    24 1   
    23    13    14 1   
    24    14    15 1   
    25    14    16 1   
    26    14    17 1   
    27    15    25 1   
    28    15    26 1   
    29    15    27 1   
    30    16    28 1   
    31    16    29 1   
    32    16    30 1   
    33    17    31 1   
    34    17    32 1   
    35    17    33 1   
@<TRIPOS>SUBSTRUCTURE
     1 1ER         1 TEMP              0 ****  ****    0 ROOT
