@<TRIPOS>MOLECULE
1ES
   27    28     1     0     0
SMALL
No Charge or Current Charge


@<TRIPOS>ATOM
      1 CAK         23.6560    44.9030     0.4250 ca         1 1ES      -0.093800
      2 CAJ         22.3720    45.5510     0.3750 cc         1 1ES      -0.137400
      3 CAA         22.1110    42.9240    -2.2480 c3         1 1ES       0.068900
      4 NAM         22.4470    43.8720    -1.1750 na         1 1ES      -0.100700
      5 CAG         21.6490    44.8940    -0.6170 cd         1 1ES      -0.155100
      6 CAL         23.6640    43.9080    -0.5140 ca         1 1ES      -0.039200
      7 CAF         24.7900    43.0900    -0.7030 ca         1 1ES      -0.130000
      8 CAD         25.9230    43.3200     0.1060 ca         1 1ES      -0.093000
      9 CAC         25.9100    44.3470     1.0780 ca         1 1ES      -0.143000
     10 CAE         24.7650    45.1530     1.2470 ca         1 1ES      -0.061000
     11 CAI         21.9160    46.7130     1.2200 c3         1 1ES      -0.002200
     12 CAH         22.6090    48.0410     0.8380 c3         1 1ES       0.148800
     13 NAB         22.1450    49.1750     1.6670 n8         1 1ES      -1.005200
     14 H1          22.8100    43.0520    -3.0830 h1         1 1ES       0.047700
     15 H2          22.1810    41.8980    -1.8670 h1         1 1ES       0.047700
     16 H3          21.0890    43.1100    -2.6000 h1         1 1ES       0.047700
     17 H4          20.6380    45.0810    -0.9650 h4         1 1ES       0.209000
     18 H5          24.7940    42.3000    -1.4500 ha         1 1ES       0.110000
     19 H6          26.8100    42.7020    -0.0180 ha         1 1ES       0.109000
     20 H7          26.7870    44.5160     1.6990 ha         1 1ES       0.110000
     21 H8          24.7450    45.9430     1.9940 ha         1 1ES       0.117000
     22 H9          20.8300    46.8330     1.1220 hc         1 1ES       0.049700
     23 H10         22.1120    46.4940     2.2760 hc         1 1ES       0.049700
     24 H11         23.6960    47.9370     0.9630 h1         1 1ES       0.031700
     25 H12         22.4050    48.2690    -0.2170 h1         1 1ES       0.031700
     26 H13         22.5940    50.0380     1.3340 hn         1 1ES       0.391000
     27 H14         21.1470    49.3380     1.4820 hn         1 1ES       0.391000
@<TRIPOS>BOND
     1     1     2 1   
     2     1     6 ar  
     3     1    10 ar  
     4     2     5 2   
     5     2    11 1   
     6     3     4 1   
     7     3    14 1   
     8     3    15 1   
     9     3    16 1   
    10     4     5 1   
    11     4     6 1   
    12     5    17 1   
    13     6     7 ar  
    14     7     8 ar  
    15     7    18 1   
    16     8     9 ar  
    17     8    19 1   
    18     9    10 ar  
    19     9    20 1   
    20    10    21 1   
    21    11    12 1   
    22    11    22 1   
    23    11    23 1   
    24    12    13 1   
    25    12    24 1   
    26    12    25 1   
    27    13    26 1   
    28    13    27 1   
@<TRIPOS>SUBSTRUCTURE
     1 1ES         1 TEMP              0 ****  ****    0 ROOT
