@<TRIPOS>MOLECULE
1ES
   27    28     1     0     0
SMALL
abcg2


@<TRIPOS>ATOM
      1 CAK         23.7000    44.9340     0.4450 ca         1 1ES      -0.093800
      2 CAJ         22.3980    45.5420     0.3920 cc         1 1ES      -0.137400
      3 CAA         22.0530    42.9770    -2.1920 c3         1 1ES       0.068900
      4 NAM         22.4880    43.8800    -1.1440 na         1 1ES      -0.100700
      5 CAG         21.7060    44.8700    -0.5840 cd         1 1ES      -0.155100
      6 CAL         23.7190    43.8960    -0.5300 ca         1 1ES      -0.039200
      7 CAF         24.8490    43.1000    -0.7320 ca         1 1ES      -0.130000
      8 CAD         25.9650    43.3510     0.0530 ca         1 1ES      -0.093000
      9 CAC         25.9630    44.3710     1.0220 ca         1 1ES      -0.143000
     10 CAE         24.8430    45.1610     1.2230 ca         1 1ES      -0.061000
     11 CAI         21.9160    46.6910     1.2170 c3         1 1ES      -0.002200
     12 CAH         22.5260    48.0320     0.7980 c3         1 1ES       0.148800
     13 NAB         22.0650    49.1100     1.6840 n8         1 1ES      -1.005200
     14 H1          22.8700    42.3100    -2.4550 h1         1 1ES       0.047700
     15 H2          21.2070    42.3750    -1.8550 h1         1 1ES       0.047700
     16 H3          21.7590    43.5360    -3.0820 h1         1 1ES       0.047700
     17 H4          20.6950    45.0180    -0.9290 h4         1 1ES       0.209000
     18 H5          24.8610    42.3110    -1.4720 ha         1 1ES       0.110000
     19 H6          26.8540    42.7490    -0.0840 ha         1 1ES       0.109000
     20 H7          26.8530    44.5380     1.6170 ha         1 1ES       0.110000
     21 H8          24.8500    45.9450     1.9710 ha         1 1ES       0.117000
     22 H9          20.8270    46.7620     1.1480 hc         1 1ES       0.049700
     23 H10         22.1570    46.5230     2.2720 hc         1 1ES       0.049700
     24 H11         23.6140    47.9760     0.8710 h1         1 1ES       0.031700
     25 H12         22.2850    48.2110    -0.2590 h1         1 1ES       0.031700
     26 H13         22.5040    49.9850     1.4160 hn         1 1ES       0.391000
     27 H14         21.0670    49.2490     1.5570 hn         1 1ES       0.391000
@<TRIPOS>BOND
     1     1     2 1   
     2     1     6 ar  
     3     1    10 ar  
     4     2     5 2   
     5     2    11 1   
     6     3     4 1   
     7     3    14 1   
     8     3    15 1   
     9     3    16 1   
    10     4     5 1   
    11     4     6 1   
    12     5    17 1   
    13     6     7 ar  
    14     7     8 ar  
    15     7    18 1   
    16     8     9 ar  
    17     8    19 1   
    18     9    10 ar  
    19     9    20 1   
    20    10    21 1   
    21    11    12 1   
    22    11    22 1   
    23    11    23 1   
    24    12    13 1   
    25    12    24 1   
    26    12    25 1   
    27    13    26 1   
    28    13    27 1   
@<TRIPOS>SUBSTRUCTURE
     1 1ES         1 TEMP              0 ****  ****    0 ROOT
