@<TRIPOS>MOLECULE
1ET
   57    59     1     0     0
SMALL
No Charge or Current Charge


@<TRIPOS>ATOM
      1 N22         -5.5440     3.9660     0.5440 nv         1 1ET      -1.056900
      2 C22         -5.6800     2.6460     0.4090 ca         1 1ET       0.600400
      3 C23         -6.8800     2.0270     0.0500 ca         1 1ET      -0.233000
      4 C24         -6.9040     0.6280    -0.0520 ca         1 1ET       0.000700
      5 C27         -8.1690    -0.1150    -0.4450 c3         1 1ET      -0.053300
      6 C25         -5.7080    -0.0580     0.2170 ca         1 1ET      -0.215500
      7 N21         -4.5450     2.0170     0.6710 nb         1 1ET      -0.753500
      8 C26         -4.5560     0.6690     0.5750 ca         1 1ET       0.398300
      9 C28         -3.2470    -0.0480     0.8670 c3         1 1ET      -0.125700
     10 C29         -2.4910    -0.4440    -0.4200 c3         1 1ET      -0.026100
     11 C15         -1.1950    -1.1850    -0.1170 ca         1 1ET      -0.083300
     12 C14         -1.1870    -2.5890    -0.0180 ca         1 1ET      -0.097500
     13 C13          0.0080    -3.2790     0.2650 ca         1 1ET      -0.089300
     14 C17          0.0110    -4.7980     0.3790 c3         1 1ET       0.198100
     15 N18          0.3750    -5.4380    -0.8980 n8         1 1ET      -0.998200
     16 C12          1.1990    -2.5510     0.4520 ca         1 1ET      -0.097500
     17 C16          0.0010    -0.4690     0.0740 ca         1 1ET      -0.100000
     18 C11          1.2010    -1.1460     0.3590 ca         1 1ET      -0.083300
     19 C09          2.4940    -0.3660     0.5600 c3         1 1ET      -0.026100
     20 C08          3.2380    -0.1250    -0.7710 c3         1 1ET      -0.125700
     21 C06          4.5440     0.6310    -0.5780 ca         1 1ET       0.398300
     22 N01          4.5220     1.9570    -0.8380 nb         1 1ET      -0.753500
     23 C02          5.6550     2.6200    -0.6620 ca         1 1ET       0.600400
     24 N02          5.5070     3.9130    -0.9550 nv         1 1ET      -1.056900
     25 C03          6.8610     2.0580    -0.2380 ca         1 1ET      -0.233000
     26 C04          6.8960     0.6820     0.0320 ca         1 1ET       0.000700
     27 C05          5.7040    -0.0390    -0.1430 ca         1 1ET      -0.215500
     28 C07          8.1690    -0.0000     0.5030 c3         1 1ET      -0.053300
     29 H1          -6.3850     4.5070     0.7090 hn         1 1ET       0.468000
     30 H2          -4.7060     4.2650     1.0280 hn         1 1ET       0.468000
     31 H3          -7.7680     2.6180    -0.1490 ha         1 1ET       0.117500
     32 H4          -8.2120    -0.2650    -1.5300 hc         1 1ET       0.045867
     33 H5          -8.2160    -1.1010     0.0330 hc         1 1ET       0.045867
     34 H6          -9.0670     0.4390    -0.1460 hc         1 1ET       0.045867
     35 H7          -5.6660    -1.1410     0.1490 ha         1 1ET       0.121500
     36 H8          -2.5940     0.5800     1.4860 hc         1 1ET       0.055950
     37 H9          -3.4480    -0.9510     1.4550 hc         1 1ET       0.055950
     38 H10         -3.1440    -1.0670    -1.0450 hc         1 1ET       0.055950
     39 H11         -2.2820     0.4590    -1.0060 hc         1 1ET       0.055950
     40 H12         -2.1110    -3.1460    -0.1590 ha         1 1ET       0.116000
     41 H13          0.7280    -5.1130     1.1500 h1         1 1ET       0.032700
     42 H14         -0.9870    -5.1500     0.6790 h1         1 1ET       0.032700
     43 H15          0.2690    -6.4540    -0.8020 hn         1 1ET       0.395000
     44 H16         -0.3280    -5.1840    -1.6010 hn         1 1ET       0.395000
     45 H18          2.1250    -3.0810     0.6670 ha         1 1ET       0.116000
     46 H19         -0.0010     0.6160    -0.0000 ha         1 1ET       0.117000
     47 H20          2.2810     0.6020     1.0320 hc         1 1ET       0.055950
     48 H21          3.1550    -0.9020     1.2520 hc         1 1ET       0.055950
     49 H22          3.4420    -1.0920    -1.2460 hc         1 1ET       0.055950
     50 H23          2.5780     0.4190    -1.4580 hc         1 1ET       0.055950
     51 H24          4.6630     4.1350    -1.4680 hn         1 1ET       0.468000
     52 H25          6.3390     4.4390    -1.2000 hn         1 1ET       0.468000
     53 H26          7.7460     2.6750    -0.1200 ha         1 1ET       0.117500
     54 H27          5.6700    -1.1070     0.0570 ha         1 1ET       0.121500
     55 H28          8.2200    -0.0180     1.5980 hc         1 1ET       0.045867
     56 H29          8.2210    -1.0360     0.1470 hc         1 1ET       0.045867
     57 H30          9.0610     0.5210     0.1350 hc         1 1ET       0.045867
@<TRIPOS>BOND
     1     1     2 1   
     2     1    29 1   
     3     1    30 1   
     4     2     3 ar  
     5     2     7 ar  
     6     3     4 ar  
     7     3    31 1   
     8     4     5 1   
     9     4     6 ar  
    10     5    32 1   
    11     5    33 1   
    12     5    34 1   
    13     6     8 ar  
    14     6    35 1   
    15     7     8 ar  
    16     8     9 1   
    17     9    10 1   
    18     9    36 1   
    19     9    37 1   
    20    10    11 1   
    21    10    38 1   
    22    10    39 1   
    23    11    12 ar  
    24    11    17 ar  
    25    12    13 ar  
    26    12    40 1   
    27    13    14 1   
    28    13    16 ar  
    29    14    15 1   
    30    14    41 1   
    31    14    42 1   
    32    15    43 1   
    33    15    44 1   
    34    16    18 ar  
    35    16    45 1   
    36    17    18 ar  
    37    17    46 1   
    38    18    19 1   
    39    19    20 1   
    40    19    47 1   
    41    19    48 1   
    42    20    21 1   
    43    20    49 1   
    44    20    50 1   
    45    21    22 ar  
    46    21    27 ar  
    47    22    23 ar  
    48    23    24 1   
    49    23    25 ar  
    50    24    51 1   
    51    24    52 1   
    52    25    26 ar  
    53    25    53 1   
    54    26    27 ar  
    55    26    28 1   
    56    27    54 1   
    57    28    55 1   
    58    28    56 1   
    59    28    57 1   
@<TRIPOS>SUBSTRUCTURE
     1 1ET         1 TEMP              0 ****  ****    0 ROOT
