@<TRIPOS>MOLECULE
1ET
   57    59     1     0     0
SMALL
abcg2


@<TRIPOS>ATOM
      1 N22         -5.0910     3.8070    -1.0560 nv         1 1ET      -1.056900
      2 C22         -5.3180     2.6080    -0.4430 ca         1 1ET       0.600400
      3 C23         -6.6310     2.1680    -0.1980 ca         1 1ET      -0.233000
      4 C24         -6.8260     0.9290     0.3770 ca         1 1ET       0.000700
      5 C27         -8.2020     0.4040     0.6520 c3         1 1ET      -0.053300
      6 C25         -5.6970     0.1650     0.6950 ca         1 1ET      -0.215500
      7 N21         -4.2540     1.8760    -0.1310 nb         1 1ET      -0.753500
      8 C26         -4.4410     0.6770     0.4260 ca         1 1ET       0.398300
      9 C28         -3.1990    -0.1110     0.7280 c3         1 1ET      -0.125700
     10 C29         -2.5110    -0.6040    -0.5520 c3         1 1ET      -0.026100
     11 C15         -1.2430    -1.3530    -0.2500 ca         1 1ET      -0.083300
     12 C14         -1.2190    -2.7450    -0.2270 ca         1 1ET      -0.097500
     13 C13         -0.0590    -3.4450     0.0920 ca         1 1ET      -0.089300
     14 C17         -0.0720    -4.9520     0.1440 c3         1 1ET       0.198100
     15 N18          1.1510    -5.5260    -0.3910 n8         1 1ET      -0.998200
     16 C12          1.0970    -2.7270     0.3850 ca         1 1ET      -0.097500
     17 C16         -0.0730    -0.6630     0.0500 ca         1 1ET      -0.100000
     18 C11          1.1030    -1.3360     0.3690 ca         1 1ET      -0.083300
     19 C09          2.3670    -0.5680     0.6360 c3         1 1ET      -0.026100
     20 C08          3.1500    -0.3000    -0.6570 c3         1 1ET      -0.125700
     21 C06          4.3780     0.5300    -0.4090 ca         1 1ET       0.398300
     22 N01          4.1640     1.7940    -0.0330 nb         1 1ET      -0.753500
     23 C02          5.2110     2.5710     0.2180 ca         1 1ET       0.600400
     24 N02          4.9560     3.8410     0.6490 nv         1 1ET      -1.056900
     25 C03          6.5350     2.1110     0.0940 ca         1 1ET      -0.233000
     26 C04          6.7580     0.8070    -0.2940 ca         1 1ET       0.000700
     27 C05          5.6450    -0.0040    -0.5480 ca         1 1ET      -0.215500
     28 C07          8.1450     0.2620    -0.4420 c3         1 1ET      -0.053300
     29 H1          -5.8220     4.4970    -1.0170 hn         1 1ET       0.468000
     30 H2          -4.1620     4.1840    -0.9620 hn         1 1ET       0.468000
     31 H3          -7.4730     2.7990    -0.4570 ha         1 1ET       0.117500
     32 H4          -8.4260    -0.4490     0.0090 hc         1 1ET       0.045867
     33 H5          -8.2890     0.0580     1.6830 hc         1 1ET       0.045867
     34 H6          -8.9660     1.1610     0.4810 hc         1 1ET       0.045867
     35 H7          -5.8030    -0.8120     1.1510 ha         1 1ET       0.121500
     36 H8          -2.5000     0.5170     1.2890 hc         1 1ET       0.055950
     37 H9          -3.4430    -0.9650     1.3630 hc         1 1ET       0.055950
     38 H10         -3.2010    -1.2440    -1.1070 hc         1 1ET       0.055950
     39 H11         -2.2950     0.2560    -1.1910 hc         1 1ET       0.055950
     40 H12         -2.1230    -3.2950    -0.4700 ha         1 1ET       0.116000
     41 H13         -0.1570    -5.2650     1.1900 h1         1 1ET       0.032700
     42 H14         -0.9850    -5.3110    -0.3490 h1         1 1ET       0.032700
     43 H15          1.1370    -6.5280    -0.2550 hn         1 1ET       0.395000
     44 H16          1.1800    -5.3800    -1.3930 hn         1 1ET       0.395000
     45 H18          2.0080    -3.2640     0.6240 ha         1 1ET       0.116000
     46 H19         -0.0770     0.4230     0.0330 ha         1 1ET       0.117000
     47 H20          2.1310     0.3880     1.1090 hc         1 1ET       0.055950
     48 H21          3.0030    -1.1200     1.3310 hc         1 1ET       0.055950
     49 H22          3.4300    -1.2490    -1.1190 hc         1 1ET       0.055950
     50 H23          2.5000     0.2210    -1.3650 hc         1 1ET       0.055950
     51 H24          4.0310     4.1960     0.4670 hn         1 1ET       0.468000
     52 H25          5.6860     4.5250     0.5400 hn         1 1ET       0.468000
     53 H26          7.3630     2.7800     0.2980 ha         1 1ET       0.117500
     54 H27          5.7740    -1.0360    -0.8530 ha         1 1ET       0.121500
     55 H28          8.3200    -0.5500     0.2660 hc         1 1ET       0.045867
     56 H29          8.2970    -0.1480    -1.4400 hc         1 1ET       0.045867
     57 H30          8.9010     1.0270    -0.2700 hc         1 1ET       0.045867
@<TRIPOS>BOND
     1     1     2 1   
     2     1    29 1   
     3     1    30 1   
     4     2     3 ar  
     5     2     7 ar  
     6     3     4 ar  
     7     3    31 1   
     8     4     5 1   
     9     4     6 ar  
    10     5    32 1   
    11     5    33 1   
    12     5    34 1   
    13     6     8 ar  
    14     6    35 1   
    15     7     8 ar  
    16     8     9 1   
    17     9    10 1   
    18     9    36 1   
    19     9    37 1   
    20    10    11 1   
    21    10    38 1   
    22    10    39 1   
    23    11    12 ar  
    24    11    17 ar  
    25    12    13 ar  
    26    12    40 1   
    27    13    14 1   
    28    13    16 ar  
    29    14    15 1   
    30    14    41 1   
    31    14    42 1   
    32    15    43 1   
    33    15    44 1   
    34    16    18 ar  
    35    16    45 1   
    36    17    18 ar  
    37    17    46 1   
    38    18    19 1   
    39    19    20 1   
    40    19    47 1   
    41    19    48 1   
    42    20    21 1   
    43    20    49 1   
    44    20    50 1   
    45    21    22 ar  
    46    21    27 ar  
    47    22    23 ar  
    48    23    24 1   
    49    23    25 ar  
    50    24    51 1   
    51    24    52 1   
    52    25    26 ar  
    53    25    53 1   
    54    26    27 ar  
    55    26    28 1   
    56    27    54 1   
    57    28    55 1   
    58    28    56 1   
    59    28    57 1   
@<TRIPOS>SUBSTRUCTURE
     1 1ET         1 TEMP              0 ****  ****    0 ROOT
