@<TRIPOS>MOLECULE
1EU
   41    43     1     0     0
SMALL
No Charge or Current Charge


@<TRIPOS>ATOM
      1 C1           8.0800    -0.8430    -0.0440 c3         1 1EU      -0.115100
      2 C2           6.7000    -1.5180     0.0010 c3         1 1EU       0.119000
      3 N3           5.6200    -0.5320     0.0040 ns         1 1EU      -0.511900
      4 C4           4.2900    -0.8580     0.0380 c          1 1EU       0.671100
      5 O5           3.8930    -2.0110     0.0690 o          1 1EU      -0.646100
      6 N6           3.4690     0.2290     0.0330 ns         1 1EU      -0.430400
      7 C7           2.1060     0.2370     0.0620 cc         1 1EU       0.512400
      8 N8           1.2750    -0.8690     0.0990 na         1 1EU      -0.315600
      9 C9          -0.0040    -0.4040     0.1120 ca         1 1EU      -0.101200
     10 C10         -1.2080    -1.1110     0.1320 ca         1 1EU      -0.066000
     11 C11         -2.4210    -0.3760     0.1300 cp         1 1EU      -0.050000
     12 C12         -2.3450     1.0490     0.1080 ca         1 1EU      -0.074000
     13 C13         -1.1030     1.7430     0.0910 ca         1 1EU      -0.133600
     14 C14         -1.0540     3.2570     0.0650 c          1 1EU       0.580700
     15 O15         -0.1140     3.8890     0.5320 o          1 1EU      -0.496100
     16 C16         -2.2340     4.0170    -0.5480 c3         1 1EU      -0.196100
     17 C17          0.0700     0.9610     0.0920 ca         1 1EU       0.152400
     18 N18          1.4030     1.3770     0.0520 nd         1 1EU      -0.616100
     19 C20         -3.7450    -1.0790     0.1530 cp         1 1EU      -0.079000
     20 C21         -3.9300    -2.3300    -0.4860 ca         1 1EU      -0.069000
     21 C22         -5.1920    -2.9450    -0.4330 ca         1 1EU      -0.163000
     22 C23         -6.2390    -2.3080     0.2520 ca         1 1EU       0.334900
     23 N24         -6.0910    -1.1160     0.8710 nb         1 1EU      -0.665000
     24 C25         -4.8730    -0.5240     0.8160 ca         1 1EU       0.342900
     25 H1           8.2240    -0.1970     0.8310 hc         1 1EU       0.046700
     26 H1A          8.8730    -1.6010    -0.0450 hc         1 1EU       0.046700
     27 H1B          8.1850    -0.2340    -0.9500 hc         1 1EU       0.046700
     28 H2           6.5840    -2.1720    -0.8740 h1         1 1EU       0.055700
     29 H2A          6.6230    -2.1350     0.9060 h1         1 1EU       0.055700
     30 HN3          5.8660     0.4500    -0.0210 hn         1 1EU       0.321500
     31 HN6          3.9200     1.1290     0.0060 hn         1 1EU       0.350500
     32 H10         -1.2060    -2.1980     0.1590 ha         1 1EU       0.122000
     33 H12         -3.2720     1.6150     0.1000 ha         1 1EU       0.117000
     34 H16         -3.0920     3.9340     0.1280 hc         1 1EU       0.058700
     35 H16A        -2.0020     5.0730    -0.7270 hc         1 1EU       0.058700
     36 H16B        -2.5750     3.5060    -1.4560 hc         1 1EU       0.058700
     37 H21         -3.1170    -2.8100    -1.0250 ha         1 1EU       0.120000
     38 H22         -5.3630    -3.9030    -0.9170 ha         1 1EU       0.124000
     39 H23         -7.2260    -2.7660     0.3060 h4         1 1EU       0.020100
     40 H25         -4.7920     0.4290     1.3380 h4         1 1EU       0.020100
     41 HN8          1.5930    -1.8300     0.1110 hn         1 1EU       0.393000
@<TRIPOS>BOND
     1     1     2 1   
     2     1    25 1   
     3     1    26 1   
     4     1    27 1   
     5     2     3 1   
     6     2    28 1   
     7     2    29 1   
     8     3     4 1   
     9     3    30 1   
    10     4     5 2   
    11     4     6 1   
    12     6     7 1   
    13     6    31 1   
    14     7     8 1   
    15     7    18 2   
    16     8     9 1   
    17     8    41 1   
    18     9    10 ar  
    19     9    17 ar  
    20    10    11 ar  
    21    10    32 1   
    22    11    12 ar  
    23    11    19 1   
    24    12    13 ar  
    25    12    33 1   
    26    13    14 1   
    27    13    17 ar  
    28    14    15 2   
    29    14    16 1   
    30    16    34 1   
    31    16    35 1   
    32    16    36 1   
    33    17    18 1   
    34    19    20 ar  
    35    19    24 ar  
    36    20    21 ar  
    37    20    37 1   
    38    21    22 ar  
    39    21    38 1   
    40    22    23 ar  
    41    22    39 1   
    42    23    24 ar  
    43    24    40 1   
@<TRIPOS>SUBSTRUCTURE
     1 1EU         1 TEMP              0 ****  ****    0 ROOT
