@<TRIPOS>MOLECULE
1EU
   41    43     1     0     0
SMALL
abcg2


@<TRIPOS>ATOM
      1 C1           7.9730    -0.9720     0.0600 c3         1 1EU      -0.115100
      2 C2           6.5840    -1.5810     0.0390 c3         1 1EU       0.119000
      3 N3           5.5820    -0.5320     0.0040 ns         1 1EU      -0.511900
      4 C4           4.2710    -0.8000     0.0510 c          1 1EU       0.671100
      5 O5           3.8080    -1.9290     0.1470 o          1 1EU      -0.646100
      6 N6           3.4600     0.3210    -0.0130 ns         1 1EU      -0.430400
      7 C7           2.0980     0.3200     0.0060 cc         1 1EU       0.512400
      8 N8           1.3380    -0.7940     0.0820 na         1 1EU      -0.315600
      9 C9           0.0310    -0.3770     0.0630 ca         1 1EU      -0.101200
     10 C10         -1.1500    -1.0850     0.1140 ca         1 1EU      -0.066000
     11 C11         -2.3410    -0.3580     0.0740 cp         1 1EU      -0.050000
     12 C12         -2.2940     1.0360    -0.0170 ca         1 1EU      -0.074000
     13 C13         -1.1020     1.7610    -0.0560 ca         1 1EU      -0.133600
     14 C14         -1.1120     3.2410    -0.1360 c          1 1EU       0.580700
     15 O15         -0.0850     3.8800    -0.0330 o          1 1EU      -0.496100
     16 C16         -2.4340     3.9360    -0.3430 c3         1 1EU      -0.196100
     17 C17          0.0970     1.0300    -0.0160 ca         1 1EU       0.152400
     18 N18          1.4030     1.4310    -0.0530 nd         1 1EU      -0.616100
     19 C20         -3.6350    -1.0600     0.1250 cp         1 1EU      -0.079000
     20 C21         -3.8380    -2.2810    -0.5170 ca         1 1EU      -0.069000
     21 C22         -5.0740    -2.8980    -0.4310 ca         1 1EU      -0.163000
     22 C23         -6.0800    -2.2740     0.2910 ca         1 1EU       0.334900
     23 N24         -5.9060    -1.1130     0.9120 nb         1 1EU      -0.665000
     24 C25         -4.7180    -0.5330     0.8310 ca         1 1EU       0.342900
     25 H1           8.1150    -0.3370     0.9350 hc         1 1EU       0.046700
     26 H1A          8.7230    -1.7600     0.0910 hc         1 1EU       0.046700
     27 H1B          8.1560    -0.3700    -0.8320 hc         1 1EU       0.046700
     28 H2           6.4770    -2.2350    -0.8300 h1         1 1EU       0.055700
     29 H2A          6.4380    -2.2010     0.9260 h1         1 1EU       0.055700
     30 HN3          5.8970     0.4170    -0.1180 hn         1 1EU       0.321500
     31 HN6          3.8740     1.2400    -0.0850 hn         1 1EU       0.350500
     32 H10         -1.1510    -2.1640     0.2000 ha         1 1EU       0.122000
     33 H12         -3.2320     1.5730    -0.0750 ha         1 1EU       0.117000
     34 H16         -3.1090     3.7560     0.4950 hc         1 1EU       0.058700
     35 H16A        -2.2770     5.0080    -0.4340 hc         1 1EU       0.058700
     36 H16B        -2.9340     3.5750    -1.2430 hc         1 1EU       0.058700
     37 H21         -3.0430    -2.7380    -1.0940 ha         1 1EU       0.120000
     38 H22         -5.2600    -3.8430    -0.9220 ha         1 1EU       0.124000
     39 H23         -7.0610    -2.7280     0.3700 h4         1 1EU       0.020100
     40 H25         -4.6050     0.4010     1.3730 h4         1 1EU       0.020100
     41 HN8          1.6930    -1.7370     0.1310 hn         1 1EU       0.393000
@<TRIPOS>BOND
     1     1     2 1   
     2     1    25 1   
     3     1    26 1   
     4     1    27 1   
     5     2     3 1   
     6     2    28 1   
     7     2    29 1   
     8     3     4 1   
     9     3    30 1   
    10     4     5 2   
    11     4     6 1   
    12     6     7 1   
    13     6    31 1   
    14     7     8 1   
    15     7    18 2   
    16     8     9 1   
    17     8    41 1   
    18     9    10 ar  
    19     9    17 ar  
    20    10    11 ar  
    21    10    32 1   
    22    11    12 ar  
    23    11    19 1   
    24    12    13 ar  
    25    12    33 1   
    26    13    14 1   
    27    13    17 ar  
    28    14    15 2   
    29    14    16 1   
    30    16    34 1   
    31    16    35 1   
    32    16    36 1   
    33    17    18 1   
    34    19    20 ar  
    35    19    24 ar  
    36    20    21 ar  
    37    20    37 1   
    38    21    22 ar  
    39    21    38 1   
    40    22    23 ar  
    41    22    39 1   
    42    23    24 ar  
    43    24    40 1   
@<TRIPOS>SUBSTRUCTURE
     1 1EU         1 TEMP              0 ****  ****    0 ROOT
