@<TRIPOS>MOLECULE
1EV
   53    55     1     0     0
SMALL
No Charge or Current Charge


@<TRIPOS>ATOM
      1 N10          0.0120     6.0270     0.0010 n1         1 1EV      -0.458000
      2 C10          0.0140     4.8590    -0.0060 cg         1 1EV       0.326000
      3 C11          0.0110     3.4210    -0.0030 ca         1 1EV      -0.019000
      4 C16         -1.1750     2.7170    -0.2880 ca         1 1EV      -0.071000
      5 C12          1.1930     2.7130     0.2830 ca         1 1EV      -0.071000
      6 C13          1.1940     1.3050     0.2890 ca         1 1EV      -0.080300
      7 C09          2.4740     0.5400     0.5960 c3         1 1EV      -0.029100
      8 C08          3.2880     0.2390    -0.6810 c3         1 1EV      -0.124200
      9 C06          4.5570    -0.5470    -0.3900 ca         1 1EV       0.395800
     10 N01          5.7050     0.1620    -0.3090 nb         1 1EV      -0.754000
     11 C02          6.8120    -0.5170    -0.0470 ca         1 1EV       0.600400
     12 N02          7.8730     0.2900    -0.0030 nv         1 1EV      -1.052900
     13 C03          6.8820    -1.8990     0.1450 ca         1 1EV      -0.230000
     14 C04          5.6970    -2.6440     0.0660 ca         1 1EV       0.001700
     15 C05          4.5120    -1.9430    -0.2090 ca         1 1EV      -0.215000
     16 C07          5.6950    -4.1510     0.2640 c3         1 1EV      -0.053800
     17 C14          0.0050     0.6090     0.0020 ca         1 1EV      -0.089000
     18 C15         -1.1810     1.3090    -0.2890 ca         1 1EV      -0.080300
     19 C29         -2.4650     0.5480    -0.5920 c3         1 1EV      -0.029100
     20 C28         -3.2770     0.2500     0.6860 c3         1 1EV      -0.124200
     21 C26         -4.5500    -0.5320     0.3980 ca         1 1EV       0.395800
     22 N21         -5.6950     0.1820     0.3190 nb         1 1EV      -0.754000
     23 C22         -6.8040    -0.4930     0.0570 ca         1 1EV       0.600400
     24 N22         -7.8620     0.3180     0.0120 nv         1 1EV      -1.052900
     25 C23         -6.8800    -1.8740    -0.1360 ca         1 1EV      -0.230000
     26 C24         -5.6980    -2.6250    -0.0550 ca         1 1EV       0.001700
     27 C27         -5.7010    -4.1300    -0.2610 c3         1 1EV      -0.053800
     28 C25         -4.5090    -1.9270     0.2160 ca         1 1EV      -0.215000
     29 H1          -2.0910     3.2620    -0.5070 ha         1 1EV       0.128000
     30 H2           2.1120     3.2550     0.5010 ha         1 1EV       0.128000
     31 H3           3.1000     1.1110     1.2940 hc         1 1EV       0.060200
     32 H4           2.2370    -0.4030     1.1040 hc         1 1EV       0.060200
     33 H5           2.6600    -0.3270    -1.3800 hc         1 1EV       0.056200
     34 H6           3.5290     1.1830    -1.1840 hc         1 1EV       0.056200
     35 H7           7.7180     1.2120    -0.3900 hn         1 1EV       0.467750
     36 H8           8.7850    -0.1230    -0.1630 hn         1 1EV       0.467750
     37 H9           7.8340    -2.3790     0.3510 ha         1 1EV       0.119000
     38 H10          3.5640    -2.4690    -0.2830 ha         1 1EV       0.121000
     39 H11          4.7560    -4.4920     0.7150 hc         1 1EV       0.046533
     40 H12          5.8150    -4.6700    -0.6940 hc         1 1EV       0.046533
     41 H13          6.5120    -4.4680     0.9230 hc         1 1EV       0.046533
     42 H14          0.0030    -0.4790     0.0040 ha         1 1EV       0.114000
     43 H15         -3.0890     1.1200    -1.2890 hc         1 1EV       0.060200
     44 H16         -2.2310    -0.3960    -1.1000 hc         1 1EV       0.060200
     45 H17         -2.6500    -0.3180     1.3840 hc         1 1EV       0.056200
     46 H18         -3.5130     1.1950     1.1890 hc         1 1EV       0.056200
     47 H19         -7.7040     1.2400     0.3980 hn         1 1EV       0.467750
     48 H20         -8.7760    -0.0910     0.1710 hn         1 1EV       0.467750
     49 H21         -7.8330    -2.3500    -0.3460 ha         1 1EV       0.119000
     50 H22         -5.5170    -4.3800    -1.3120 hc         1 1EV       0.046533
     51 H23         -4.9230    -4.6160     0.3410 hc         1 1EV       0.046533
     52 H24         -6.6630    -4.5710     0.0260 hc         1 1EV       0.046533
     53 H25         -3.5630    -2.4560     0.2850 ha         1 1EV       0.121000
@<TRIPOS>BOND
     1     1     2 3   
     2     2     3 1   
     3     3     4 ar  
     4     3     5 ar  
     5     4    18 ar  
     6     4    29 1   
     7     5     6 ar  
     8     5    30 1   
     9     6     7 1   
    10     6    17 ar  
    11     7     8 1   
    12     7    31 1   
    13     7    32 1   
    14     8     9 1   
    15     8    33 1   
    16     8    34 1   
    17     9    10 ar  
    18     9    15 ar  
    19    10    11 ar  
    20    11    12 1   
    21    11    13 ar  
    22    12    35 1   
    23    12    36 1   
    24    13    14 ar  
    25    13    37 1   
    26    14    15 ar  
    27    14    16 1   
    28    15    38 1   
    29    16    39 1   
    30    16    40 1   
    31    16    41 1   
    32    17    18 ar  
    33    17    42 1   
    34    18    19 1   
    35    19    20 1   
    36    19    43 1   
    37    19    44 1   
    38    20    21 1   
    39    20    45 1   
    40    20    46 1   
    41    21    22 ar  
    42    21    28 ar  
    43    22    23 ar  
    44    23    24 1   
    45    23    25 ar  
    46    24    47 1   
    47    24    48 1   
    48    25    26 ar  
    49    25    49 1   
    50    26    27 1   
    51    26    28 ar  
    52    27    50 1   
    53    27    51 1   
    54    27    52 1   
    55    28    53 1   
@<TRIPOS>SUBSTRUCTURE
     1 1EV         1 TEMP              0 ****  ****    0 ROOT
