@<TRIPOS>MOLECULE
1EV
   53    55     1     0     0
SMALL
abcg2


@<TRIPOS>ATOM
      1 N10          0.0160     5.9090     0.0120 n1         1 1EV      -0.458000
      2 C10          0.0140     4.7560     0.0110 cg         1 1EV       0.326000
      3 C11          0.0110     3.3290     0.0090 ca         1 1EV      -0.019000
      4 C16         -1.1650     2.6460    -0.2980 ca         1 1EV      -0.071000
      5 C12          1.1840     2.6410     0.3140 ca         1 1EV      -0.071000
      6 C13          1.1870     1.2520     0.3140 ca         1 1EV      -0.080300
      7 C09          2.4500     0.4870     0.5850 c3         1 1EV      -0.029100
      8 C08          3.2270     0.2090    -0.7100 c3         1 1EV      -0.124200
      9 C06          4.4880    -0.5630    -0.4440 ca         1 1EV       0.395800
     10 N01          5.4330     0.0800     0.2450 nb         1 1EV      -0.754000
     11 C02          6.5610    -0.5590     0.5320 ca         1 1EV       0.600400
     12 N02          7.4830     0.1150     1.2800 nv         1 1EV      -1.052900
     13 C03          6.7940    -1.8870     0.1320 ca         1 1EV      -0.230000
     14 C04          5.8190    -2.5530    -0.5820 ca         1 1EV       0.001700
     15 C05          4.6320    -1.8680    -0.8740 ca         1 1EV      -0.215000
     16 C07          6.0100    -3.9690    -1.0320 c3         1 1EV      -0.053800
     17 C14          0.0050     0.5840     0.0070 ca         1 1EV      -0.089000
     18 C15         -1.1740     1.2580    -0.3000 ca         1 1EV      -0.080300
     19 C29         -2.4400     0.4980    -0.5740 c3         1 1EV      -0.029100
     20 C28         -3.2240     0.2300     0.7180 c3         1 1EV      -0.124200
     21 C26         -4.4850    -0.5420     0.4480 ca         1 1EV       0.395800
     22 N21         -5.4280     0.1020    -0.2440 nb         1 1EV      -0.754000
     23 C22         -6.5530    -0.5380    -0.5380 ca         1 1EV       0.600400
     24 N22         -7.4730     0.1350    -1.2900 nv         1 1EV      -1.052900
     25 C23         -6.7890    -1.8660    -0.1370 ca         1 1EV      -0.230000
     26 C24         -5.8180    -2.5310     0.5820 ca         1 1EV       0.001700
     27 C27         -6.0090    -3.9460     1.0330 c3         1 1EV      -0.053800
     28 C25         -4.6320    -1.8470     0.8790 ca         1 1EV      -0.215000
     29 H1          -2.0650     3.2000    -0.5350 ha         1 1EV       0.128000
     30 H2           2.0860     3.1910     0.5520 ha         1 1EV       0.128000
     31 H3           3.0910     1.0430     1.2710 hc         1 1EV       0.060200
     32 H4           2.2080    -0.4620     1.0700 hc         1 1EV       0.060200
     33 H5           2.5910    -0.3430    -1.4050 hc         1 1EV       0.056200
     34 H6           3.4770     1.1600    -1.1880 hc         1 1EV       0.056200
     35 H7           7.3850     1.1170     1.2990 hn         1 1EV       0.467750
     36 H8           8.4380    -0.1990     1.2320 hn         1 1EV       0.467750
     37 H9           7.7280    -2.3740     0.3860 ha         1 1EV       0.119000
     38 H10          3.8410    -2.3530    -1.4330 ha         1 1EV       0.121000
     39 H11          5.2700    -4.6250    -0.5710 hc         1 1EV       0.046533
     40 H12          5.8800    -4.0550    -2.1120 hc         1 1EV       0.046533
     41 H13          6.9990    -4.3460    -0.7780 hc         1 1EV       0.046533
     42 H14          0.0030    -0.5010     0.0060 ha         1 1EV       0.114000
     43 H15         -3.0740     1.0570    -1.2650 hc         1 1EV       0.060200
     44 H16         -2.2010    -0.4530    -1.0540 hc         1 1EV       0.060200
     45 H17         -2.5940    -0.3190     1.4210 hc         1 1EV       0.056200
     46 H18         -3.4760     1.1840     1.1890 hc         1 1EV       0.056200
     47 H19         -7.3770     1.1370    -1.3090 hn         1 1EV       0.467750
     48 H20         -8.4270    -0.1830    -1.2530 hn         1 1EV       0.467750
     49 H21         -7.7220    -2.3520    -0.3960 ha         1 1EV       0.119000
     50 H22         -5.2870    -4.6060     0.5480 hc         1 1EV       0.046533
     51 H23         -5.8490    -4.0380     2.1080 hc         1 1EV       0.046533
     52 H24         -7.0080    -4.3160     0.8040 hc         1 1EV       0.046533
     53 H25         -3.8430    -2.3310     1.4400 ha         1 1EV       0.121000
@<TRIPOS>BOND
     1     1     2 3   
     2     2     3 1   
     3     3     4 ar  
     4     3     5 ar  
     5     4    18 ar  
     6     4    29 1   
     7     5     6 ar  
     8     5    30 1   
     9     6     7 1   
    10     6    17 ar  
    11     7     8 1   
    12     7    31 1   
    13     7    32 1   
    14     8     9 1   
    15     8    33 1   
    16     8    34 1   
    17     9    10 ar  
    18     9    15 ar  
    19    10    11 ar  
    20    11    12 1   
    21    11    13 ar  
    22    12    35 1   
    23    12    36 1   
    24    13    14 ar  
    25    13    37 1   
    26    14    15 ar  
    27    14    16 1   
    28    15    38 1   
    29    16    39 1   
    30    16    40 1   
    31    16    41 1   
    32    17    18 ar  
    33    17    42 1   
    34    18    19 1   
    35    19    20 1   
    36    19    43 1   
    37    19    44 1   
    38    20    21 1   
    39    20    45 1   
    40    20    46 1   
    41    21    22 ar  
    42    21    28 ar  
    43    22    23 ar  
    44    23    24 1   
    45    23    25 ar  
    46    24    47 1   
    47    24    48 1   
    48    25    26 ar  
    49    25    49 1   
    50    26    27 1   
    51    26    28 ar  
    52    27    50 1   
    53    27    51 1   
    54    27    52 1   
    55    28    53 1   
@<TRIPOS>SUBSTRUCTURE
     1 1EV         1 TEMP              0 ****  ****    0 ROOT
