@<TRIPOS>MOLECULE
1EW
   63    65     1     0     0
SMALL
No Charge or Current Charge


@<TRIPOS>ATOM
      1 N22          4.5450     4.8930    -0.1220 nv         1 1EW      -1.058900
      2 C22          4.8190     3.5900    -0.2080 ca         1 1EW       0.602900
      3 C23          6.0820     3.0480     0.0380 ca         1 1EW      -0.234000
      4 C24          6.2500     1.6610    -0.0930 ca         1 1EW       0.001700
      5 C27          7.5940     0.9990     0.1590 c3         1 1EW      -0.052800
      6 C25          5.1260     0.9100    -0.4730 ca         1 1EW      -0.217000
      7 N21          3.7480     2.8990    -0.5680 nb         1 1EW      -0.752000
      8 C26          3.8990     1.5620    -0.7000 ca         1 1EW       0.399300
      9 C28          2.6660     0.7690    -1.1040 c3         1 1EW      -0.125700
     10 C29          2.0070     0.0540     0.0960 c3         1 1EW      -0.031100
     11 C15          0.8290    -0.8230    -0.3300 ca         1 1EW      -0.070300
     12 C14          0.9840    -2.1870    -0.6940 ca         1 1EW      -0.075300
     13 C17          2.3410    -2.8950    -0.6880 c3         1 1EW      -0.031100
     14 C18          2.6510    -3.5580     0.6720 c3         1 1EW      -0.078400
     15 C19          4.0270    -4.2520     0.6990 c3         1 1EW       0.148800
     16 N20          4.2930    -4.8790     2.0070 n8         1 1EW      -0.993200
     17 C13         -0.1510    -2.9310    -1.0720 ca         1 1EW      -0.110000
     18 C12         -1.4240    -2.3400    -1.0980 ca         1 1EW      -0.110000
     19 C16         -0.4550    -0.2410    -0.3640 ca         1 1EW      -0.101000
     20 C11         -1.5820    -0.9900    -0.7470 ca         1 1EW      -0.079300
     21 C09         -2.9610    -0.3450    -0.7720 c3         1 1EW      -0.026100
     22 C08         -3.6630    -0.4240     0.6010 c3         1 1EW      -0.125700
     23 C06         -5.0540     0.1920     0.5800 ca         1 1EW       0.397300
     24 C05         -6.1500    -0.5280     0.0680 ca         1 1EW      -0.216000
     25 N01         -5.1680     1.4480     1.0660 nb         1 1EW      -0.752000
     26 C02         -6.3760     1.9920     1.0400 ca         1 1EW       0.599900
     27 N02         -6.3600     3.2250     1.5500 nv         1 1EW      -1.055900
     28 C03         -7.5300     1.3690     0.5610 ca         1 1EW      -0.233000
     29 C04         -7.4230     0.0650     0.0560 ca         1 1EW       0.000700
     30 C07         -8.6330    -0.6740    -0.4900 c3         1 1EW      -0.053800
     31 H1           5.3240     5.5370    -0.2000 hn         1 1EW       0.469500
     32 H2           3.6720     5.1780    -0.5470 hn         1 1EW       0.469500
     33 H3           6.9100     3.6880     0.3260 ha         1 1EW       0.118000
     34 H4           7.4700    -0.0130     0.5610 hc         1 1EW       0.045700
     35 H5           8.1720     0.9240    -0.7700 hc         1 1EW       0.045700
     36 H6           8.1910     1.5700     0.8800 hc         1 1EW       0.045700
     37 H7           5.1980    -0.1680    -0.5920 ha         1 1EW       0.120000
     38 H8           1.9260     1.4230    -1.5820 hc         1 1EW       0.055200
     39 H9           2.9450     0.0270    -1.8610 hc         1 1EW       0.055200
     40 H10          2.7600    -0.5310     0.6350 hc         1 1EW       0.058700
     41 H11          1.6690     0.8140     0.8120 hc         1 1EW       0.058700
     42 H12          2.3590    -3.6680    -1.4670 hc         1 1EW       0.043700
     43 H13          3.1510    -2.2050    -0.9510 hc         1 1EW       0.043700
     44 H14          2.6120    -2.8000     1.4620 hc         1 1EW       0.051200
     45 H15          1.8670    -4.2930     0.8950 hc         1 1EW       0.051200
     46 H16          4.0680    -5.0280    -0.0780 h1         1 1EW       0.024700
     47 H17          4.8170    -3.5140     0.4970 h1         1 1EW       0.024700
     48 H18          3.6080    -5.6280     2.1630 hn         1 1EW       0.390500
     49 H19          5.1900    -5.3790     1.9620 hn         1 1EW       0.390500
     50 H21         -0.0480    -3.9790    -1.3460 ha         1 1EW       0.107000
     51 H22         -2.2860    -2.9340    -1.3910 ha         1 1EW       0.109000
     52 H23         -0.5780     0.8040    -0.0900 ha         1 1EW       0.117000
     53 H24         -2.8810     0.7070    -1.0730 hc         1 1EW       0.056200
     54 H25         -3.5910    -0.8300    -1.5280 hc         1 1EW       0.056200
     55 H26         -3.7340    -1.4750     0.9050 hc         1 1EW       0.056200
     56 H27         -3.0360     0.0690     1.3540 hc         1 1EW       0.056200
     57 H28         -6.0060    -1.5350    -0.3150 ha         1 1EW       0.121000
     58 H29         -5.5220     3.4560     2.0700 hn         1 1EW       0.468000
     59 H30         -7.2330     3.5980     1.9060 hn         1 1EW       0.468000
     60 H31         -8.4840     1.8870     0.5770 ha         1 1EW       0.118000
     61 H32         -8.7350    -0.5110    -1.5700 hc         1 1EW       0.046033
     62 H33         -8.5510    -1.7540    -0.3200 hc         1 1EW       0.046033
     63 H34         -9.5590    -0.3340    -0.0110 hc         1 1EW       0.046033
@<TRIPOS>BOND
     1     1     2 1   
     2     1    31 1   
     3     1    32 1   
     4     2     3 ar  
     5     2     7 ar  
     6     3     4 ar  
     7     3    33 1   
     8     4     5 1   
     9     4     6 ar  
    10     5    34 1   
    11     5    35 1   
    12     5    36 1   
    13     6     8 ar  
    14     6    37 1   
    15     7     8 ar  
    16     8     9 1   
    17     9    10 1   
    18     9    38 1   
    19     9    39 1   
    20    10    11 1   
    21    10    40 1   
    22    10    41 1   
    23    11    12 ar  
    24    11    19 ar  
    25    12    13 1   
    26    12    17 ar  
    27    13    14 1   
    28    13    42 1   
    29    13    43 1   
    30    14    15 1   
    31    14    44 1   
    32    14    45 1   
    33    15    16 1   
    34    15    46 1   
    35    15    47 1   
    36    16    48 1   
    37    16    49 1   
    38    17    18 ar  
    39    17    50 1   
    40    18    20 ar  
    41    18    51 1   
    42    19    20 ar  
    43    19    52 1   
    44    20    21 1   
    45    21    22 1   
    46    21    53 1   
    47    21    54 1   
    48    22    23 1   
    49    22    55 1   
    50    22    56 1   
    51    23    24 ar  
    52    23    25 ar  
    53    24    29 ar  
    54    24    57 1   
    55    25    26 ar  
    56    26    27 1   
    57    26    28 ar  
    58    27    58 1   
    59    27    59 1   
    60    28    29 ar  
    61    28    60 1   
    62    29    30 1   
    63    30    61 1   
    64    30    62 1   
    65    30    63 1   
@<TRIPOS>SUBSTRUCTURE
     1 1EW         1 TEMP              0 ****  ****    0 ROOT
