@<TRIPOS>MOLECULE
1EW
   63    65     1     0     0
SMALL
bcc


@<TRIPOS>ATOM
      1 N22          4.3790     4.3880     1.2760 nv         1 1EW      -0.948500
      2 C22          4.6720     3.2890     0.5220 ca         1 1EW       0.668200
      3 C23          6.0080     2.9240     0.2770 ca         1 1EW      -0.317300
      4 C24          6.2690     1.7770    -0.4440 ca         1 1EW       0.001700
      5 C27          7.6720     1.3410    -0.7360 c3         1 1EW      -0.052800
      6 C25          5.1800     1.0240    -0.9000 ca         1 1EW      -0.300300
      7 N21          3.6470     2.5710     0.0760 nb         1 1EW      -0.752000
      8 C26          3.8980     1.4600    -0.6200 ca         1 1EW       0.464600
      9 C28          2.6990     0.6720    -1.0630 c3         1 1EW      -0.125700
     10 C29          1.9870     0.0020     0.1210 c3         1 1EW      -0.031100
     11 C15          0.8330    -0.8470    -0.3360 ca         1 1EW      -0.070300
     12 C14          1.0070    -2.1780    -0.7370 ca         1 1EW      -0.075300
     13 C17          2.3350    -2.8800    -0.6260 c3         1 1EW      -0.031100
     14 C18          2.5480    -3.4960     0.7580 c3         1 1EW      -0.078400
     15 C19          3.8970    -4.1860     0.8860 c3         1 1EW       0.148800
     16 N20          4.0550    -4.7770     2.2070 n8         1 1EW      -0.882800
     17 C13         -0.1010    -2.8830    -1.2000 ca         1 1EW      -0.128000
     18 C12         -1.3570    -2.2980    -1.2750 ca         1 1EW      -0.128000
     19 C16         -0.4340    -0.2740    -0.4190 ca         1 1EW      -0.119000
     20 C11         -1.5410    -0.9760    -0.8830 ca         1 1EW      -0.079300
     21 C09         -2.9030    -0.3420    -0.9050 c3         1 1EW      -0.026100
     22 C08         -3.6550    -0.5740     0.4120 c3         1 1EW      -0.125700
     23 C06         -5.0020     0.0910     0.4130 ca         1 1EW       0.462600
     24 C05         -6.1670    -0.6490     0.3300 ca         1 1EW      -0.299300
     25 N01         -4.9950     1.4260     0.4720 nb         1 1EW      -0.752000
     26 C02         -6.1560     2.0700     0.4490 ca         1 1EW       0.665200
     27 N02         -6.1110     3.4350     0.4640 nv         1 1EW      -0.945500
     28 C03         -7.3880     1.3970     0.3690 ca         1 1EW      -0.316300
     29 C04         -7.3970     0.0190     0.3080 ca         1 1EW       0.000700
     30 C07         -8.6790    -0.7490     0.2140 c3         1 1EW      -0.053800
     31 H1           5.0880     5.0950     1.3730 hn         1 1EW       0.414300
     32 H2           3.4420     4.7480     1.1950 hn         1 1EW       0.414300
     33 H3           6.8170     3.5410     0.6490 ha         1 1EW       0.136000
     34 H4           7.8740     0.3620    -0.2990 hc         1 1EW       0.045700
     35 H5           7.8340     1.2500    -1.8110 hc         1 1EW       0.045700
     36 H6           8.4030     2.0450    -0.3420 hc         1 1EW       0.045700
     37 H7           5.3370     0.1170    -1.4700 ha         1 1EW       0.138000
     38 H8           1.9920     1.3320    -1.5730 hc         1 1EW       0.055200
     39 H9           3.0020    -0.0870    -1.7870 hc         1 1EW       0.055200
     40 H10          2.7080    -0.5890     0.6910 hc         1 1EW       0.058700
     41 H11          1.6260     0.7810     0.7960 hc         1 1EW       0.058700
     42 H12          2.3910    -3.6690    -1.3800 hc         1 1EW       0.043700
     43 H13          3.1590    -2.1950    -0.8460 hc         1 1EW       0.043700
     44 H14          2.4620    -2.7250     1.5290 hc         1 1EW       0.051200
     45 H15          1.7480    -4.2180     0.9500 hc         1 1EW       0.051200
     46 H16          4.0060    -4.9110     0.0650 h1         1 1EW       0.024700
     47 H17          4.6900    -3.4460     0.7460 h1         1 1EW       0.024700
     48 H18          3.3810    -5.5250     2.3190 hn         1 1EW       0.335300
     49 H19          4.9620    -5.2210     2.2700 hn         1 1EW       0.335300
     50 H21          0.0230    -3.9130    -1.5140 ha         1 1EW       0.125000
     51 H22         -2.1980    -2.8740    -1.6440 ha         1 1EW       0.127000
     52 H23         -0.5580     0.7600    -0.1100 ha         1 1EW       0.135000
     53 H24         -2.8170     0.7320    -1.0810 hc         1 1EW       0.056200
     54 H25         -3.4910    -0.7540    -1.7300 hc         1 1EW       0.056200
     55 H26         -3.7690    -1.6470     0.5820 hc         1 1EW       0.056200
     56 H27         -3.0570    -0.1780     1.2380 hc         1 1EW       0.056200
     57 H28         -6.1230    -1.7300     0.2880 ha         1 1EW       0.139000
     58 H29         -5.2520     3.8470     0.7890 hn         1 1EW       0.412800
     59 H30         -6.9380     3.9250     0.7590 hn         1 1EW       0.412800
     60 H31         -8.3140     1.9600     0.3560 ha         1 1EW       0.136000
     61 H32         -8.7200    -1.3190    -0.7150 hc         1 1EW       0.046033
     62 H33         -8.7650    -1.4670     1.0320 hc         1 1EW       0.046033
     63 H34         -9.5480    -0.0930     0.2460 hc         1 1EW       0.046033
@<TRIPOS>BOND
     1     1     2 1   
     2     1    31 1   
     3     1    32 1   
     4     2     3 ar  
     5     2     7 ar  
     6     3     4 ar  
     7     3    33 1   
     8     4     5 1   
     9     4     6 ar  
    10     5    34 1   
    11     5    35 1   
    12     5    36 1   
    13     6     8 ar  
    14     6    37 1   
    15     7     8 ar  
    16     8     9 1   
    17     9    10 1   
    18     9    38 1   
    19     9    39 1   
    20    10    11 1   
    21    10    40 1   
    22    10    41 1   
    23    11    12 ar  
    24    11    19 ar  
    25    12    13 1   
    26    12    17 ar  
    27    13    14 1   
    28    13    42 1   
    29    13    43 1   
    30    14    15 1   
    31    14    44 1   
    32    14    45 1   
    33    15    16 1   
    34    15    46 1   
    35    15    47 1   
    36    16    48 1   
    37    16    49 1   
    38    17    18 ar  
    39    17    50 1   
    40    18    20 ar  
    41    18    51 1   
    42    19    20 ar  
    43    19    52 1   
    44    20    21 1   
    45    21    22 1   
    46    21    53 1   
    47    21    54 1   
    48    22    23 1   
    49    22    55 1   
    50    22    56 1   
    51    23    24 ar  
    52    23    25 ar  
    53    24    29 ar  
    54    24    57 1   
    55    25    26 ar  
    56    26    27 1   
    57    26    28 ar  
    58    27    58 1   
    59    27    59 1   
    60    28    29 ar  
    61    28    60 1   
    62    29    30 1   
    63    30    61 1   
    64    30    62 1   
    65    30    63 1   
@<TRIPOS>SUBSTRUCTURE
     1 1EW         1 TEMP              0 ****  ****    0 ROOT
