@<TRIPOS>MOLECULE
1EX
   47    46     1     0     0
SMALL
bcc


@<TRIPOS>ATOM
      1 CAA          8.6540     2.0800    -0.6250 c3         1 1EX      -0.086100
      2 CAH          8.1370     0.7870     0.0030 c3         1 1EX      -0.045200
      3 CAF          6.8740     1.0070     0.7720 c2         1 1EX      -0.154200
      4 CAD          5.6910     0.3980     0.6150 ce         1 1EX      -0.136000
      5 CAE          5.3810    -0.6370    -0.3590 ce         1 1EX      -0.133000
      6 CAG          4.2160    -1.2890    -0.4720 c2         1 1EX      -0.155200
      7 CAJ          2.9810    -1.1160     0.3520 c3         1 1EX      -0.044200
      8 CAL          1.7420    -0.8430    -0.5010 c3         1 1EX      -0.072400
      9 CAN          0.4750    -0.7200     0.3350 c3         1 1EX      -0.075400
     10 CAP         -0.7820    -0.4990    -0.4960 c3         1 1EX      -0.074400
     11 CAQ         -2.0420    -0.3720     0.3520 c3         1 1EX      -0.074400
     12 CAO         -3.3090    -0.1820    -0.4720 c3         1 1EX      -0.074400
     13 CAM         -4.5650    -0.0600     0.3810 c3         1 1EX      -0.074400
     14 CAK         -5.8360     0.1040    -0.4430 c3         1 1EX      -0.074400
     15 CAI         -7.0900     0.2330     0.4130 c3         1 1EX      -0.082400
     16 CAC         -8.3420     0.3720    -0.4290 c3         1 1EX       0.141400
     17 OAB         -9.4630     0.4970     0.4210 oh         1 1EX      -0.599800
     18 H1           8.8090     2.8510     0.1310 hc         1 1EX       0.033367
     19 H2           9.6060     1.9160    -1.1310 hc         1 1EX       0.033367
     20 H3           7.9480     2.4710    -1.3590 hc         1 1EX       0.033367
     21 H4           8.0100     0.0260    -0.7680 hc         1 1EX       0.044700
     22 H5           8.9000     0.4010     0.6880 hc         1 1EX       0.044700
     23 H6           6.9410     1.7640     1.5490 ha         1 1EX       0.115000
     24 H7           4.8910     0.7020     1.2800 ha         1 1EX       0.119000
     25 H8           6.1670    -0.9110    -1.0540 ha         1 1EX       0.119000
     26 H9           4.1420    -2.0420    -1.2520 ha         1 1EX       0.115000
     27 H10          2.8090    -2.0360     0.9240 hc         1 1EX       0.045200
     28 H11          3.0980    -0.3200     1.0890 hc         1 1EX       0.045200
     29 H12          1.8920     0.0740    -1.0800 hc         1 1EX       0.040200
     30 H13          1.6190    -1.6490    -1.2330 hc         1 1EX       0.040200
     31 H14          0.3530    -1.6250     0.9410 hc         1 1EX       0.037200
     32 H15          0.5910     0.1050     1.0480 hc         1 1EX       0.037200
     33 H16         -0.6630     0.4020    -1.1090 hc         1 1EX       0.037200
     34 H17         -0.9020    -1.3290    -1.2010 hc         1 1EX       0.037200
     35 H18         -2.1480    -1.2650     0.9780 hc         1 1EX       0.037700
     36 H19         -1.9280     0.4700     1.0450 hc         1 1EX       0.037700
     37 H20         -3.2070     0.7110    -1.0990 hc         1 1EX       0.037200
     38 H21         -3.4220    -1.0240    -1.1630 hc         1 1EX       0.037200
     39 H22         -4.6590    -0.9470     1.0180 hc         1 1EX       0.039200
     40 H23         -4.4600     0.7910     1.0630 hc         1 1EX       0.039200
     41 H24         -5.7400     0.9860    -1.0860 hc         1 1EX       0.036700
     42 H25         -5.9410    -0.7520    -1.1180 hc         1 1EX       0.036700
     43 H26         -7.1820    -0.6460     1.0610 hc         1 1EX       0.052200
     44 H27         -6.9950     1.1010     1.0730 hc         1 1EX       0.052200
     45 H28         -8.2390     1.2460    -1.0860 h1         1 1EX       0.015200
     46 H29         -8.4340    -0.5050    -1.0850 h1         1 1EX       0.015200
     47 H30        -10.2500     0.5620    -0.1280 ho         1 1EX       0.403000
@<TRIPOS>BOND
     1     1     2 1   
     2     1    18 1   
     3     1    19 1   
     4     1    20 1   
     5     2     3 1   
     6     2    21 1   
     7     2    22 1   
     8     3     4 2   
     9     3    23 1   
    10     4     5 1   
    11     4    24 1   
    12     5     6 2   
    13     5    25 1   
    14     6     7 1   
    15     6    26 1   
    16     7     8 1   
    17     7    27 1   
    18     7    28 1   
    19     8     9 1   
    20     8    29 1   
    21     8    30 1   
    22     9    10 1   
    23     9    31 1   
    24     9    32 1   
    25    10    11 1   
    26    10    33 1   
    27    10    34 1   
    28    11    12 1   
    29    11    35 1   
    30    11    36 1   
    31    12    13 1   
    32    12    37 1   
    33    12    38 1   
    34    13    14 1   
    35    13    39 1   
    36    13    40 1   
    37    14    15 1   
    38    14    41 1   
    39    14    42 1   
    40    15    16 1   
    41    15    43 1   
    42    15    44 1   
    43    16    17 1   
    44    16    45 1   
    45    16    46 1   
    46    17    47 1   
@<TRIPOS>SUBSTRUCTURE
     1 1EX         1 TEMP              0 ****  ****    0 ROOT
