@<TRIPOS>MOLECULE
1EX
   47    46     1     0     0
SMALL
No Charge or Current Charge


@<TRIPOS>ATOM
      1 CAA          8.8630     1.2860    -0.4410 c3         1 1EX      -0.086100
      2 CAH          8.5200     0.0420     0.4010 c3         1 1EX      -0.045200
      3 CAF          7.2790     0.2400     1.2520 c2         1 1EX      -0.204200
      4 CAD          5.9880     0.1450     0.8600 ce         1 1EX      -0.186000
      5 CAE          5.5430    -0.1760    -0.5050 ce         1 1EX      -0.183000
      6 CAG          4.2500    -0.2700    -0.8880 c2         1 1EX      -0.205200
      7 CAJ          3.0270    -0.0700    -0.0100 c3         1 1EX      -0.044200
      8 CAL          1.6970    -0.2540    -0.7740 c3         1 1EX      -0.072400
      9 CAN          0.4520    -0.0500     0.1180 c3         1 1EX      -0.075400
     10 CAP         -0.8770    -0.2340    -0.6480 c3         1 1EX      -0.074400
     11 CAQ         -2.1210    -0.0300     0.2450 c3         1 1EX      -0.074400
     12 CAO         -3.4500    -0.2130    -0.5210 c3         1 1EX      -0.074400
     13 CAM         -4.6940    -0.0100     0.3710 c3         1 1EX      -0.074400
     14 CAK         -6.0230    -0.1930    -0.3950 c3         1 1EX      -0.074400
     15 CAI         -7.2680     0.0110     0.4970 c3         1 1EX      -0.082400
     16 CAC         -8.5930    -0.1720    -0.2700 c3         1 1EX       0.164600
     17 OAB         -9.6970     0.0310     0.6170 oh         1 1EX      -0.662000
     18 H1           9.0400     2.1530     0.2070 hc         1 1EX       0.033367
     19 H2           9.7680     1.1100    -1.0330 hc         1 1EX       0.033367
     20 H3           8.0440     1.5300    -1.1280 hc         1 1EX       0.033367
     21 H4           8.4000    -0.8230    -0.2620 hc         1 1EX       0.044700
     22 H5           9.3770    -0.1890     1.0470 hc         1 1EX       0.044700
     23 H6           7.5030     0.4860     2.2920 ha         1 1EX       0.165000
     24 H7           5.2050     0.3170     1.6000 ha         1 1EX       0.169000
     25 H8           6.3220    -0.3450    -1.2500 ha         1 1EX       0.169000
     26 H9           4.0220    -0.5130    -1.9280 ha         1 1EX       0.165000
     27 H10          3.0540    -0.7780     0.8270 hc         1 1EX       0.045200
     28 H11          3.0470     0.9360     0.4280 hc         1 1EX       0.045200
     29 H12          1.6610     0.4570    -1.6090 hc         1 1EX       0.040200
     30 H13          1.6680    -1.2610    -1.2080 hc         1 1EX       0.040200
     31 H14          0.4880    -0.7610     0.9530 hc         1 1EX       0.037200
     32 H15          0.4810     0.9570     0.5520 hc         1 1EX       0.037200
     33 H16         -0.9120     0.4770    -1.4830 hc         1 1EX       0.037200
     34 H17         -0.9060    -1.2410    -1.0820 hc         1 1EX       0.037200
     35 H18         -2.0850    -0.7410     1.0800 hc         1 1EX       0.037700
     36 H19         -2.0920     0.9770     0.6790 hc         1 1EX       0.037700
     37 H20         -3.4850     0.4970    -1.3560 hc         1 1EX       0.037200
     38 H21         -3.4790    -1.2200    -0.9550 hc         1 1EX       0.037200
     39 H22         -4.6590    -0.7200     1.2060 hc         1 1EX       0.039200
     40 H23         -4.6640     0.9980     0.8060 hc         1 1EX       0.039200
     41 H24         -6.0580     0.5180    -1.2300 hc         1 1EX       0.036700
     42 H25         -6.0530    -1.2000    -0.8290 hc         1 1EX       0.036700
     43 H26         -7.2350    -0.7000     1.3310 hc         1 1EX       0.052200
     44 H27         -7.2410     1.0180     0.9310 hc         1 1EX       0.052200
     45 H28         -8.6350     0.5460    -1.0990 h1         1 1EX       0.015200
     46 H29         -8.6290    -1.1840    -0.6960 h1         1 1EX       0.015200
     47 H30        -10.5160    -0.0960     0.0870 ho         1 1EX       0.442000
@<TRIPOS>BOND
     1     1     2 1   
     2     1    18 1   
     3     1    19 1   
     4     1    20 1   
     5     2     3 1   
     6     2    21 1   
     7     2    22 1   
     8     3     4 2   
     9     3    23 1   
    10     4     5 1   
    11     4    24 1   
    12     5     6 2   
    13     5    25 1   
    14     6     7 1   
    15     6    26 1   
    16     7     8 1   
    17     7    27 1   
    18     7    28 1   
    19     8     9 1   
    20     8    29 1   
    21     8    30 1   
    22     9    10 1   
    23     9    31 1   
    24     9    32 1   
    25    10    11 1   
    26    10    33 1   
    27    10    34 1   
    28    11    12 1   
    29    11    35 1   
    30    11    36 1   
    31    12    13 1   
    32    12    37 1   
    33    12    38 1   
    34    13    14 1   
    35    13    39 1   
    36    13    40 1   
    37    14    15 1   
    38    14    41 1   
    39    14    42 1   
    40    15    16 1   
    41    15    43 1   
    42    15    44 1   
    43    16    17 1   
    44    16    45 1   
    45    16    46 1   
    46    17    47 1   
@<TRIPOS>SUBSTRUCTURE
     1 1EX         1 TEMP              0 ****  ****    0 ROOT
