@<TRIPOS>MOLECULE
1EY
   45    44     1     0     0
SMALL
No Charge or Current Charge


@<TRIPOS>ATOM
      1 CAA          8.7550     1.2490    -0.4750 c3         1 1EY      -0.086100
      2 CAG          8.4160    -0.0240     0.3230 c3         1 1EY      -0.045200
      3 CAE          7.1910     0.1500     1.2010 c2         1 1EY      -0.204200
      4 CAC          5.8930     0.0800     0.8280 ce         1 1EY      -0.187000
      5 CAD          5.4220    -0.1840    -0.5410 ce         1 1EY      -0.183000
      6 CAF          4.1230    -0.2540    -0.9050 c2         1 1EY      -0.205200
      7 CAI          2.9160    -0.0800     0.0000 c3         1 1EY      -0.044200
      8 CAK          1.5720    -0.2240    -0.7470 c3         1 1EY      -0.072400
      9 CAM          0.3440    -0.0470     0.1730 c3         1 1EY      -0.075400
     10 CAO         -0.9990    -0.1910    -0.5760 c3         1 1EY      -0.073400
     11 CAQ         -2.2260    -0.0150     0.3450 c3         1 1EY      -0.075400
     12 CAP         -3.5690    -0.1590    -0.4040 c3         1 1EY      -0.074400
     13 CAN         -4.7970     0.0180     0.5170 c3         1 1EY      -0.075400
     14 CAL         -6.1400    -0.1270    -0.2320 c3         1 1EY      -0.066400
     15 CAJ         -7.3670     0.0490     0.6930 c3         1 1EY      -0.204400
     16 CAH         -8.6810    -0.0790    -0.0830 c          1 1EY       0.574900
     17 OAB         -9.2080    -1.1570    -0.3370 o          1 1EY      -0.514100
     18 H1           9.6490     1.0890    -1.0890 hc         1 1EY       0.033367
     19 H2           7.9280     1.5260    -1.1380 hc         1 1EY       0.033367
     20 H3           8.9500     2.0890     0.2030 hc         1 1EY       0.033367
     21 H4           8.2780    -0.8620    -0.3710 hc         1 1EY       0.044700
     22 H5           9.2810    -0.2870     0.9450 hc         1 1EY       0.044700
     23 H6           7.4340     0.3530     2.2470 ha         1 1EY       0.164000
     24 H7           5.1230     0.2290     1.5880 ha         1 1EY       0.169000
     25 H8           6.1880    -0.3300    -1.3050 ha         1 1EY       0.170000
     26 H9           3.8760    -0.4540    -1.9500 ha         1 1EY       0.165000
     27 H10          2.9520    -0.8200     0.8090 hc         1 1EY       0.045200
     28 H11          2.9510     0.9080     0.4770 hc         1 1EY       0.045200
     29 H12          1.5280     0.5200    -1.5530 hc         1 1EY       0.040700
     30 H13          1.5280    -1.2130    -1.2200 hc         1 1EY       0.040700
     31 H14          0.3880    -0.7900     0.9790 hc         1 1EY       0.037200
     32 H15          0.3880     0.9420     0.6460 hc         1 1EY       0.037200
     33 H16         -1.0430     0.5520    -1.3820 hc         1 1EY       0.038200
     34 H17         -1.0430    -1.1800    -1.0490 hc         1 1EY       0.038200
     35 H18         -2.1820    -0.7580     1.1510 hc         1 1EY       0.037700
     36 H19         -2.1820     0.9740     0.8180 hc         1 1EY       0.037700
     37 H20         -3.6140     0.5840    -1.2100 hc         1 1EY       0.038700
     38 H21         -3.6130    -1.1480    -0.8780 hc         1 1EY       0.038700
     39 H22         -4.7520    -0.7260     1.3230 hc         1 1EY       0.040200
     40 H23         -4.7520     1.0070     0.9900 hc         1 1EY       0.040200
     41 H24         -6.1840     0.6170    -1.0390 hc         1 1EY       0.042700
     42 H25         -6.1830    -1.1160    -0.7060 hc         1 1EY       0.042700
     43 H26         -7.3360    -0.7120     1.4820 hc         1 1EY       0.067200
     44 H27         -7.3180     1.0570     1.1210 hc         1 1EY       0.067200
     45 H28         -9.1410     0.8780    -0.4140 h4         1 1EY      -0.021800
@<TRIPOS>BOND
     1     1     2 1   
     2     1    18 1   
     3     1    19 1   
     4     1    20 1   
     5     2     3 1   
     6     2    21 1   
     7     2    22 1   
     8     3     4 2   
     9     3    23 1   
    10     4     5 1   
    11     4    24 1   
    12     5     6 2   
    13     5    25 1   
    14     6     7 1   
    15     6    26 1   
    16     7     8 1   
    17     7    27 1   
    18     7    28 1   
    19     8     9 1   
    20     8    29 1   
    21     8    30 1   
    22     9    10 1   
    23     9    31 1   
    24     9    32 1   
    25    10    11 1   
    26    10    33 1   
    27    10    34 1   
    28    11    12 1   
    29    11    35 1   
    30    11    36 1   
    31    12    13 1   
    32    12    37 1   
    33    12    38 1   
    34    13    14 1   
    35    13    39 1   
    36    13    40 1   
    37    14    15 1   
    38    14    41 1   
    39    14    42 1   
    40    15    16 1   
    41    15    43 1   
    42    15    44 1   
    43    16    17 2   
    44    16    45 1   
@<TRIPOS>SUBSTRUCTURE
     1 1EY         1 TEMP              0 ****  ****    0 ROOT
