@<TRIPOS>MOLECULE
1EY
   45    44     1     0     0
SMALL
bcc


@<TRIPOS>ATOM
      1 CAA          8.5960     1.9930    -0.5830 c3         1 1EY      -0.086100
      2 CAG          8.0590     0.6940     0.0140 c3         1 1EY      -0.045200
      3 CAE          6.8000     0.9170     0.7890 c2         1 1EY      -0.154200
      4 CAC          5.6040     0.3390     0.6130 ce         1 1EY      -0.137000
      5 CAD          5.2720    -0.6580    -0.3930 ce         1 1EY      -0.133000
      6 CAF          4.0940    -1.2830    -0.5240 c2         1 1EY      -0.155200
      7 CAI          2.8650    -1.1130     0.3090 c3         1 1EY      -0.044200
      8 CAK          1.6250    -0.7970    -0.5290 c3         1 1EY      -0.072400
      9 CAM          0.3670    -0.6780     0.3220 c3         1 1EY      -0.075400
     10 CAO         -0.8960    -0.4220    -0.4890 c3         1 1EY      -0.073400
     11 CAQ         -2.1420    -0.3100     0.3810 c3         1 1EY      -0.075400
     12 CAP         -3.4220    -0.0830    -0.4130 c3         1 1EY      -0.074400
     13 CAN         -4.6580     0.0100     0.4730 c3         1 1EY      -0.075400
     14 CAL         -5.9440     0.2250    -0.3140 c3         1 1EY      -0.066400
     15 CAJ         -7.1710     0.2930     0.5960 c3         1 1EY      -0.204400
     16 CAH         -8.4140     0.6050    -0.1740 c          1 1EY       0.574900
     17 OAB         -9.4470    -0.0170    -0.1210 o          1 1EY      -0.514100
     18 H1           9.5450     1.8260    -1.0930 hc         1 1EY       0.033367
     19 H2           7.8960     2.4140    -1.3060 hc         1 1EY       0.033367
     20 H3           8.7650     2.7430     0.1920 hc         1 1EY       0.033367
     21 H4           7.9170    -0.0440    -0.7760 hc         1 1EY       0.044700
     22 H5           8.8150     0.2770     0.6870 hc         1 1EY       0.044700
     23 H6           6.8820     1.6490     1.5890 ha         1 1EY       0.114000
     24 H7           4.8100     0.6390     1.2880 ha         1 1EY       0.119000
     25 H8           6.0530    -0.9250    -1.0980 ha         1 1EY       0.120000
     26 H9           4.0050    -2.0100    -1.3270 ha         1 1EY       0.115000
     27 H10          2.6810    -2.0450     0.8560 hc         1 1EY       0.045200
     28 H11          2.9980    -0.3380     1.0670 hc         1 1EY       0.045200
     29 H12          1.7860     0.1340    -1.0830 hc         1 1EY       0.040700
     30 H13          1.4860    -1.5810    -1.2810 hc         1 1EY       0.040700
     31 H14          0.2410    -1.5950     0.9070 hc         1 1EY       0.037200
     32 H15          0.5000     0.1290     1.0520 hc         1 1EY       0.037200
     33 H16         -0.7770     0.4960    -1.0760 hc         1 1EY       0.038200
     34 H17         -1.0320    -1.2310    -1.2150 hc         1 1EY       0.038200
     35 H18         -2.2460    -1.2210     0.9810 hc         1 1EY       0.037700
     36 H19         -2.0100     0.5090     1.0980 hc         1 1EY       0.037700
     37 H20         -3.3280     0.8330    -1.0060 hc         1 1EY       0.038700
     38 H21         -3.5530    -0.8980    -1.1330 hc         1 1EY       0.038700
     39 H22         -4.7460    -0.9040     1.0690 hc         1 1EY       0.040200
     40 H23         -4.5320     0.8290     1.1890 hc         1 1EY       0.040200
     41 H24         -5.8680     1.1500    -0.8950 hc         1 1EY       0.042700
     42 H25         -6.0700    -0.5850    -1.0390 hc         1 1EY       0.042700
     43 H26         -7.3000    -0.6320     1.1620 hc         1 1EY       0.067200
     44 H27         -7.0320     1.1080     1.3160 hc         1 1EY       0.067200
     45 H28         -8.3280     1.4920    -0.8290 h4         1 1EY      -0.021800
@<TRIPOS>BOND
     1     1     2 1   
     2     1    18 1   
     3     1    19 1   
     4     1    20 1   
     5     2     3 1   
     6     2    21 1   
     7     2    22 1   
     8     3     4 2   
     9     3    23 1   
    10     4     5 1   
    11     4    24 1   
    12     5     6 2   
    13     5    25 1   
    14     6     7 1   
    15     6    26 1   
    16     7     8 1   
    17     7    27 1   
    18     7    28 1   
    19     8     9 1   
    20     8    29 1   
    21     8    30 1   
    22     9    10 1   
    23     9    31 1   
    24     9    32 1   
    25    10    11 1   
    26    10    33 1   
    27    10    34 1   
    28    11    12 1   
    29    11    35 1   
    30    11    36 1   
    31    12    13 1   
    32    12    37 1   
    33    12    38 1   
    34    13    14 1   
    35    13    39 1   
    36    13    40 1   
    37    14    15 1   
    38    14    41 1   
    39    14    42 1   
    40    15    16 1   
    41    15    43 1   
    42    15    44 1   
    43    16    17 2   
    44    16    45 1   
@<TRIPOS>SUBSTRUCTURE
     1 1EY         1 TEMP              0 ****  ****    0 ROOT
