@<TRIPOS>MOLECULE
1EZ
   48    51     1     0     0
SMALL
No Charge or Current Charge


@<TRIPOS>ATOM
      1 C10         -0.8610     0.6970     1.4770 c          1 1EZ       0.613100
      2 C13         -3.3410     0.4930     0.6440 c6         1 1EZ      -0.027000
      3 C15         -4.7650    -1.6440     0.6820 c6         1 1EZ      -0.057367
      4 C17         -3.9920    -0.6850    -1.5430 c6         1 1EZ      -0.057367
      5 C20         -6.0620    -0.7910     0.5980 c6         1 1EZ      -0.069067
      6 C21         -4.6630     1.3260     0.5450 c6         1 1EZ      -0.066400
      7 C22         -2.8840     0.1250    -0.8080 c6         1 1EZ      -0.066400
      8 C24          3.4180    -0.5150     0.5610 ca         1 1EZ       0.016000
      9 N01          5.6680    -1.0270    -1.9610 n8         1 1EZ      -0.995100
     10 O03          6.4590    -0.8080     0.3620 o          1 1EZ      -0.532000
     11 O04          6.4700     1.1730    -1.2770 o          1 1EZ      -0.532000
     12 C05          4.1280     0.3370    -0.3070 ca         1 1EZ      -0.360500
     13 C06          3.4830     1.4560    -0.8680 ca         1 1EZ       0.016000
     14 C07          2.1380     1.7170    -0.5560 ca         1 1EZ      -0.180500
     15 C08          1.4220     0.8780     0.3160 ca         1 1EZ       0.044000
     16 N09          0.0650     1.2060     0.5770 ns         1 1EZ      -0.158000
     17 O11         -0.6060    -0.1590     2.3160 o          1 1EZ      -0.560100
     18 C12         -2.2530     1.3480     1.3810 c3         1 1EZ      -0.150400
     19 C14         -3.6560    -0.8340     1.4150 c6         1 1EZ      -0.066400
     20 C16         -4.2820    -1.9950    -0.7550 c6         1 1EZ      -0.069067
     21 C18         -5.2900     0.1680    -1.6240 c6         1 1EZ      -0.069067
     22 C19         -5.7730     0.5190    -0.1880 c6         1 1EZ      -0.057367
     23 C23          2.0730    -0.2460     0.8680 ca         1 1EZ      -0.180500
     24 H1          -4.9700    -2.5700     1.2370 hc         1 1EZ       0.050700
     25 H2          -3.6520    -0.9350    -2.5580 hc         1 1EZ       0.050700
     26 H3          -6.8610    -1.3610     0.1050 hc         1 1EZ       0.041033
     27 H4          -6.4270    -0.5550     1.6070 hc         1 1EZ       0.041033
     28 H5          -5.0120     1.6060     1.5500 hc         1 1EZ       0.044200
     29 H6          -4.4810     2.2690     0.0120 hc         1 1EZ       0.044200
     30 H7          -2.6510     1.0370    -1.3770 hc         1 1EZ       0.044200
     31 H8          -1.9590    -0.4670    -0.7850 hc         1 1EZ       0.044200
     32 H9           3.9000    -1.3890     0.9980 ha         1 1EZ       0.135500
     33 H10          4.7030    -0.8570    -2.2320 hn         1 1EZ       0.473000
     34 H11          6.2110    -0.5420    -2.6710 hn         1 1EZ       0.473000
     35 H12          4.0140     2.1280    -1.5430 ha         1 1EZ       0.135500
     36 H13          1.6520     2.5850    -0.9960 ha         1 1EZ       0.134000
     37 H14         -0.2970     1.9390    -0.0180 hn         1 1EZ       0.151000
     38 H15         -2.5960     1.5560     2.4010 hc         1 1EZ       0.060200
     39 H16         -2.1520     2.2990     0.8430 hc         1 1EZ       0.060200
     40 H17         -2.7570    -1.4570     1.5010 hc         1 1EZ       0.044200
     41 H18         -3.9750    -0.6110     2.4430 hc         1 1EZ       0.044200
     42 H19         -3.3790    -2.6190    -0.7100 hc         1 1EZ       0.041033
     43 H20         -5.0440    -2.5900    -1.2760 hc         1 1EZ       0.041033
     44 H21         -5.1050     1.0860    -2.1980 hc         1 1EZ       0.041033
     45 H22         -6.0720    -0.3830    -2.1630 hc         1 1EZ       0.041033
     46 H23         -6.6890     1.1230    -0.2460 hc         1 1EZ       0.050700
     47 H24          1.5540    -0.9300     1.5310 ha         1 1EZ       0.134000
     48 S02          5.8400    -0.0100    -0.6960 sy         1 1EZ       1.145600
@<TRIPOS>BOND
     1     1    16 1   
     2     1    17 2   
     3     1    18 1   
     4     2     6 1   
     5     2     7 1   
     6     2    18 1   
     7     2    19 1   
     8     3     5 1   
     9     3    19 1   
    10     3    20 1   
    11     3    24 1   
    12     4     7 1   
    13     4    20 1   
    14     4    21 1   
    15     4    25 1   
    16     5    22 1   
    17     5    26 1   
    18     5    27 1   
    19     6    22 1   
    20     6    28 1   
    21     6    29 1   
    22     7    30 1   
    23     7    31 1   
    24     8    12 ar  
    25     8    23 ar  
    26     8    32 1   
    27     9    33 1   
    28     9    34 1   
    29     9    48 1   
    30    10    48 2   
    31    11    48 2   
    32    12    13 ar  
    33    12    48 1   
    34    13    14 ar  
    35    13    35 1   
    36    14    15 ar  
    37    14    36 1   
    38    15    16 1   
    39    15    23 ar  
    40    16    37 1   
    41    18    38 1   
    42    18    39 1   
    43    19    40 1   
    44    19    41 1   
    45    20    42 1   
    46    20    43 1   
    47    21    22 1   
    48    21    44 1   
    49    21    45 1   
    50    22    46 1   
    51    23    47 1   
@<TRIPOS>SUBSTRUCTURE
     1 1EZ         1 TEMP              0 ****  ****    0 ROOT
