@<TRIPOS>MOLECULE
1EZ
   48    51     1     0     0
SMALL
abcg2


@<TRIPOS>ATOM
      1 C10         -0.7640     0.3190     0.1150 c          1 1EZ       0.613100
      2 C13         -3.3790     0.3110     0.0840 c6         1 1EZ      -0.027000
      3 C15         -4.9290    -1.2910     1.2540 c6         1 1EZ      -0.057367
      4 C17         -4.8590    -1.2350    -1.2440 c6         1 1EZ      -0.057367
      5 C20         -6.0490    -0.2510     1.2450 c6         1 1EZ      -0.069067
      6 C21         -4.5230     1.3420     0.0770 c6         1 1EZ      -0.066400
      7 C22         -3.5000    -0.5300    -1.1960 c6         1 1EZ      -0.066400
      8 C24          3.5480    -0.6950    -0.0500 ca         1 1EZ       0.016000
      9 N01          6.6460     0.1860    -1.6380 n8         1 1EZ      -0.995100
     10 O03          6.4240    -1.2680     0.3610 o          1 1EZ      -0.532000
     11 O04          6.8220     1.2080     0.6130 o          1 1EZ      -0.532000
     12 C05          4.4270     0.3770    -0.0080 ca         1 1EZ      -0.360500
     13 C06          3.9400     1.6770     0.0550 ca         1 1EZ       0.016000
     14 C07          2.5790     1.8920     0.0710 ca         1 1EZ      -0.180500
     15 C08          1.6770     0.8210     0.0280 ca         1 1EZ       0.044000
     16 N09          0.3270     1.1440     0.0420 ns         1 1EZ      -0.158000
     17 O11         -0.6680    -0.8910     0.1620 o          1 1EZ      -0.560100
     18 C12         -2.0660     1.0930     0.1430 c3         1 1EZ      -0.150400
     19 C14         -3.5710    -0.5890     1.3140 c6         1 1EZ      -0.066400
     20 C16         -5.0040    -2.1390    -0.0180 c6         1 1EZ      -0.069067
     21 C18         -5.9790    -0.1950    -1.2490 c6         1 1EZ      -0.069067
     22 C19         -5.8880     0.6530     0.0210 c6         1 1EZ      -0.057367
     23 C23          2.1800    -0.4830    -0.0320 ca         1 1EZ      -0.180500
     24 H1          -5.0350    -1.9390     2.1310 hc         1 1EZ       0.050700
     25 H2          -4.9150    -1.8410    -2.1540 hc         1 1EZ       0.050700
     26 H3          -7.0260    -0.7450     1.2230 hc         1 1EZ       0.041033
     27 H4          -6.0160     0.3450     2.1630 hc         1 1EZ       0.041033
     28 H5          -4.4600     1.9680     0.9740 hc         1 1EZ       0.044200
     29 H6          -4.4090     2.0120    -0.7830 hc         1 1EZ       0.044200
     30 H7          -3.3880     0.1210    -2.0720 hc         1 1EZ       0.044200
     31 H8          -2.7010    -1.2730    -1.2470 hc         1 1EZ       0.044200
     32 H9           3.9150    -1.7120    -0.0930 ha         1 1EZ       0.135500
     33 H10          6.2420    -0.5330    -2.2280 hn         1 1EZ       0.473000
     34 H11          6.5240     1.1050    -2.0470 hn         1 1EZ       0.473000
     35 H12          4.6100     2.5260     0.0980 ha         1 1EZ       0.135500
     36 H13          2.2050     2.9080     0.1260 ha         1 1EZ       0.134000
     37 H14          0.1300     2.1340     0.0260 hn         1 1EZ       0.151000
     38 H15         -2.0570     1.7040     1.0550 hc         1 1EZ       0.060200
     39 H16         -2.0400     1.8130    -0.6840 hc         1 1EZ       0.060200
     40 H17         -2.7760    -1.3360     1.3720 hc         1 1EZ       0.044200
     41 H18         -3.5060     0.0190     2.2240 hc         1 1EZ       0.044200
     42 H19         -4.2100    -2.8940    -0.0120 hc         1 1EZ       0.041033
     43 H20         -5.9540    -2.6820    -0.0570 hc         1 1EZ       0.041033
     44 H21         -5.8960     0.4420    -2.1360 hc         1 1EZ       0.041033
     45 H22         -6.9550    -0.6880    -1.3020 hc         1 1EZ       0.041033
     46 H23         -6.6740     1.4140     0.0160 hc         1 1EZ       0.050700
     47 H24          1.5200    -1.3320    -0.0620 ha         1 1EZ       0.134000
     48 S02          6.1700     0.0990    -0.0650 sy         1 1EZ       1.145600
@<TRIPOS>BOND
     1     1    16 1   
     2     1    17 2   
     3     1    18 1   
     4     2     6 1   
     5     2     7 1   
     6     2    18 1   
     7     2    19 1   
     8     3     5 1   
     9     3    19 1   
    10     3    20 1   
    11     3    24 1   
    12     4     7 1   
    13     4    20 1   
    14     4    21 1   
    15     4    25 1   
    16     5    22 1   
    17     5    26 1   
    18     5    27 1   
    19     6    22 1   
    20     6    28 1   
    21     6    29 1   
    22     7    30 1   
    23     7    31 1   
    24     8    12 ar  
    25     8    23 ar  
    26     8    32 1   
    27     9    33 1   
    28     9    34 1   
    29     9    48 1   
    30    10    48 2   
    31    11    48 2   
    32    12    13 ar  
    33    12    48 1   
    34    13    14 ar  
    35    13    35 1   
    36    14    15 ar  
    37    14    36 1   
    38    15    16 1   
    39    15    23 ar  
    40    16    37 1   
    41    18    38 1   
    42    18    39 1   
    43    19    40 1   
    44    19    41 1   
    45    20    42 1   
    46    20    43 1   
    47    21    22 1   
    48    21    44 1   
    49    21    45 1   
    50    22    46 1   
    51    23    47 1   
@<TRIPOS>SUBSTRUCTURE
     1 1EZ         1 TEMP              0 ****  ****    0 ROOT
