@<TRIPOS>MOLECULE
1F0
   97   101     1     0     0
SMALL
No Charge or Current Charge


@<TRIPOS>ATOM
      1 N1          12.4400     8.6130    35.9170 n          1 1F0      -0.397300
      2 C5          11.4640     9.1640    34.9670 c5         1 1F0       0.169700
      3 C57         10.2260     8.2250    34.8480 c3         1 1F0      -0.090100
      4 C51         12.1900     9.4860    33.6150 ca         1 1F0      -0.077300
      5 C4          11.1800    10.5490    35.7570 c5         1 1F0       0.172500
      6 C47          9.9790    10.5000    36.7490 c3         1 1F0      -0.081100
      7 C41         10.9720    11.6750    34.7090 ca         1 1F0      -0.058300
      8 N3          12.3700    10.7570    36.6530 n2         1 1F0      -0.630900
      9 C2          12.9730     9.6200    36.7490 ce         1 1F0       0.546500
     10 C21         13.9880     9.4320    37.8260 ca         1 1F0      -0.176900
     11 C56         13.5100    10.0090    33.5700 ca         1 1F0      -0.080500
     12 C55         14.1320    10.3190    32.3490 ca         1 1F0      -0.107000
     13 C54         13.4530    10.1140    31.1420 ca         1 1F0       0.129000
     14 Cl5         14.2310    10.5070    29.6150 cl         1 1F0      -0.221000
     15 C53         12.1510     9.6000    31.1560 ca         1 1F0      -0.107000
     16 C52         11.5260     9.2900    32.3760 ca         1 1F0      -0.080500
     17 C42          9.7970    11.7200    33.9200 ca         1 1F0      -0.085000
     18 C43          9.6140    12.7180    32.9470 ca         1 1F0      -0.106000
     19 C44         10.6010    13.6920    32.7460 ca         1 1F0       0.127000
     20 Cl4         10.3760    14.9350    31.5220 cl         1 1F0      -0.218000
     21 C45         11.7680    13.6730    33.5210 ca         1 1F0      -0.106000
     22 C46         11.9510    12.6770    34.4950 ca         1 1F0      -0.085000
     23 C10         13.0890     7.3850    35.6830 c          1 1F0       0.687100
     24 O10         13.1920     6.9210    34.5550 o          1 1F0      -0.605100
     25 N10         13.5480     6.6370    36.7840 n          1 1F0      -0.413800
     26 C14         14.3820     5.4250    36.5500 c6         1 1F0       0.104000
     27 C13         15.1400     4.9320    37.8110 c6         1 1F0       0.145800
     28 N12         14.2430     4.7560    38.9850 n3         1 1F0      -0.710600
     29 C12         13.5530     6.0470    39.2710 c6         1 1F0       0.145800
     30 C11         12.7490     6.5640    38.0460 c6         1 1F0       0.104000
     31 C22         13.6600     9.7600    39.1530 ca         1 1F0      -0.036000
     32 C23         14.6030     9.6110    40.1820 ca         1 1F0      -0.158000
     33 C24         15.9120     9.1490    39.9080 ca         1 1F0      -0.008300
     34 C30         16.9820     8.9580    41.0180 c3         1 1F0      -0.009700
     35 C33         18.2400     9.8050    40.6820 c3         1 1F0      -0.082767
     36 C31         17.3720     7.4580    41.0900 c3         1 1F0      -0.082767
     37 C25         16.2410     8.8630    38.5630 ca         1 1F0      -0.213000
     38 C26         15.2980     9.0220    37.5250 ca         1 1F0       0.186100
     39 O27         15.6270     8.8100    36.2020 os         1 1F0      -0.356100
     40 C28         16.8960     8.2820    35.7920 c3         1 1F0       0.166600
     41 C29         16.8550     8.1330    34.2640 c3         1 1F0      -0.102100
     42 C32         16.4840     9.3890    42.4270 c3         1 1F0      -0.082767
     43 C16         14.0840     3.8180    41.3570 c3         1 1F0      -0.049400
     44 C17         14.8750     3.0790    42.4680 c3         1 1F0      -0.309400
     45 S17         13.8570     2.6360    43.8950 s6         1 1F0       1.106000
     46 C19         14.9890     1.8160    45.0130 c3         1 1F0      -0.341100
     47 O17         12.8620     1.6480    43.4580 o          1 1F0      -0.522000
     48 O18         13.4090     3.8760    44.5390 o          1 1F0      -0.522000
     49 C15         14.9700     4.1870    40.1460 c3         1 1F0       0.169800
     50 H1           9.8720     7.8960    35.8320 hc         1 1F0       0.052700
     51 H2           9.3860     8.7120    34.3420 hc         1 1F0       0.052700
     52 H3          10.4710     7.3190    34.2820 hc         1 1F0       0.052700
     53 H4           9.8740    11.4540    37.2790 hc         1 1F0       0.044700
     54 H5           9.0260    10.3080    36.2440 hc         1 1F0       0.044700
     55 H6          10.1100     9.7170    37.5050 hc         1 1F0       0.044700
     56 H10         14.0690    10.1960    34.4800 ha         1 1F0       0.125000
     57 H11         15.1410    10.7230    32.3400 ha         1 1F0       0.127000
     58 H12         11.6220     9.4450    30.2200 ha         1 1F0       0.127000
     59 H13         10.5110     8.9060    32.3400 ha         1 1F0       0.125000
     60 H14          9.0180    10.9740    34.0470 ha         1 1F0       0.124000
     61 H15          8.7090    12.7320    32.3460 ha         1 1F0       0.129000
     62 H16         12.5330    14.4290    33.3650 ha         1 1F0       0.129000
     63 H17         12.8710    12.6850    35.0740 ha         1 1F0       0.124000
     64 H18         13.7310     4.6160    36.1890 h1         1 1F0       0.057200
     65 H19         15.1170     5.6320    35.7590 h1         1 1F0       0.057200
     66 H20         15.6420     3.9840    37.5660 h1         1 1F0       0.044450
     67 H21         15.9300     5.6600    38.0490 h1         1 1F0       0.044450
     68 H23         14.2890     6.8110    39.5610 h1         1 1F0       0.044450
     69 H24         12.8510     5.9420    40.1090 h1         1 1F0       0.044450
     70 H25         12.2990     7.5320    38.2930 h1         1 1F0       0.057200
     71 H26         11.9120     5.8740    37.8730 h1         1 1F0       0.057200
     72 H27         12.6610    10.1180    39.3930 ha         1 1F0       0.131000
     73 H28         14.2880     9.8620    41.1890 ha         1 1F0       0.124000
     74 H29         18.9890     9.7290    41.4800 hc         1 1F0       0.037033
     75 H30         18.7190     9.4760    39.7540 hc         1 1F0       0.037033
     76 H31         17.9740    10.8630    40.5690 hc         1 1F0       0.037033
     77 H32         18.1360     7.2870    41.8570 hc         1 1F0       0.037033
     78 H33         16.4970     6.8490    41.3430 hc         1 1F0       0.037033
     79 H34         17.7720     7.0970    40.1350 hc         1 1F0       0.037033
     80 H35         17.2440     8.5240    38.3310 ha         1 1F0       0.118000
     81 H36         17.0750     7.3000    36.2500 h1         1 1F0       0.033200
     82 H37         17.7120     8.9600    36.0740 h1         1 1F0       0.033200
     83 H38         17.7980     7.7120    33.8980 hc         1 1F0       0.055700
     84 H39         16.0390     7.4660    33.9620 hc         1 1F0       0.055700
     85 H40         16.7050     9.1080    33.7860 hc         1 1F0       0.055700
     86 H41         17.2700     9.2490    43.1790 hc         1 1F0       0.037033
     87 H42         16.2000    10.4480    42.4390 hc         1 1F0       0.037033
     88 H43         15.6200     8.7910    42.7420 hc         1 1F0       0.037033
     89 H44         13.6430     4.7290    41.7790 hc         1 1F0       0.069700
     90 H45         13.2570     3.1860    41.0090 hc         1 1F0       0.069700
     91 H46         15.2950     2.1420    42.0850 h1         1 1F0       0.091700
     92 H47         15.6850     3.7110    42.8510 h1         1 1F0       0.091700
     93 H48         14.4200     1.5230    45.9020 h1         1 1F0       0.104033
     94 H49         15.3920     0.9390    44.4950 h1         1 1F0       0.104033
     95 H50         15.7810     2.5280    45.2660 h1         1 1F0       0.104033
     96 H51         15.4840     3.2700    39.8260 h1         1 1F0       0.033200
     97 H52         15.7490     4.8840    40.4800 h1         1 1F0       0.033200
@<TRIPOS>BOND
     1     1     2 1   
     2     1     9 1   
     3     1    23 1   
     4     2     3 1   
     5     2     4 1   
     6     2     5 1   
     7     3    50 1   
     8     3    51 1   
     9     3    52 1   
    10     4    11 ar  
    11     4    16 ar  
    12     5     6 1   
    13     5     7 1   
    14     5     8 1   
    15     6    53 1   
    16     6    54 1   
    17     6    55 1   
    18     7    17 ar  
    19     7    22 ar  
    20     8     9 2   
    21     9    10 1   
    22    10    31 ar  
    23    10    38 ar  
    24    11    12 ar  
    25    11    56 1   
    26    12    13 ar  
    27    12    57 1   
    28    13    14 1   
    29    13    15 ar  
    30    15    16 ar  
    31    15    58 1   
    32    16    59 1   
    33    17    18 ar  
    34    17    60 1   
    35    18    19 ar  
    36    18    61 1   
    37    19    20 1   
    38    19    21 ar  
    39    21    22 ar  
    40    21    62 1   
    41    22    63 1   
    42    23    24 2   
    43    23    25 1   
    44    25    26 1   
    45    25    30 1   
    46    26    27 1   
    47    26    64 1   
    48    26    65 1   
    49    27    28 1   
    50    27    66 1   
    51    27    67 1   
    52    28    29 1   
    53    28    49 1   
    54    29    30 1   
    55    29    68 1   
    56    29    69 1   
    57    30    70 1   
    58    30    71 1   
    59    31    32 ar  
    60    31    72 1   
    61    32    33 ar  
    62    32    73 1   
    63    33    34 1   
    64    33    37 ar  
    65    34    35 1   
    66    34    36 1   
    67    34    42 1   
    68    35    74 1   
    69    35    75 1   
    70    35    76 1   
    71    36    77 1   
    72    36    78 1   
    73    36    79 1   
    74    37    38 ar  
    75    37    80 1   
    76    38    39 1   
    77    39    40 1   
    78    40    41 1   
    79    40    81 1   
    80    40    82 1   
    81    41    83 1   
    82    41    84 1   
    83    41    85 1   
    84    42    86 1   
    85    42    87 1   
    86    42    88 1   
    87    43    44 1   
    88    43    49 1   
    89    43    89 1   
    90    43    90 1   
    91    44    45 1   
    92    44    91 1   
    93    44    92 1   
    94    45    46 1   
    95    45    47 2   
    96    45    48 2   
    97    46    93 1   
    98    46    94 1   
    99    46    95 1   
   100    49    96 1   
   101    49    97 1   
@<TRIPOS>SUBSTRUCTURE
     1 1F0         1 TEMP              0 ****  ****    0 ROOT
