@<TRIPOS>MOLECULE
1F0
   97   101     1     0     0
SMALL
abcg2


@<TRIPOS>ATOM
      1 N1          12.6280     8.4100    35.7760 n          1 1F0      -0.397300
      2 C5          11.6940     9.0350    34.8060 c5         1 1F0       0.169700
      3 C57         10.6230     8.0440    34.3580 c3         1 1F0      -0.090100
      4 C51         12.4510     9.6260    33.6180 ca         1 1F0      -0.077300
      5 C4          11.1280    10.1990    35.7550 c5         1 1F0       0.172500
      6 C47          9.9150     9.7450    36.5800 c3         1 1F0      -0.081100
      7 C41         10.8260    11.4700    34.9820 ca         1 1F0      -0.058300
      8 N3          12.2190    10.4080    36.7240 n2         1 1F0      -0.630900
      9 C2          12.9510     9.3570    36.7490 ce         1 1F0       0.546500
     10 C21         14.0260     9.2010    37.7480 ca         1 1F0      -0.176900
     11 C56         13.8020     9.9530    33.7070 ca         1 1F0      -0.080500
     12 C55         14.4660    10.5810    32.6600 ca         1 1F0      -0.107000
     13 C54         13.7650    10.8880    31.5050 ca         1 1F0       0.129000
     14 CL5         14.5870    11.6940    30.1820 cl         1 1F0      -0.221000
     15 C53         12.4240    10.5610    31.3760 ca         1 1F0      -0.107000
     16 C52         11.7800     9.9290    32.4320 ca         1 1F0      -0.080500
     17 C42          9.6210    11.6300    34.2990 ca         1 1F0      -0.085000
     18 C43          9.3810    12.7500    33.5120 ca         1 1F0      -0.106000
     19 C44         10.3620    13.7250    33.4110 ca         1 1F0       0.127000
     20 CL4         10.0760    15.1350    32.4090 cl         1 1F0      -0.218000
     21 C45         11.5640    13.6040    34.0930 ca         1 1F0      -0.106000
     22 C46         11.7850    12.4770    34.8730 ca         1 1F0      -0.085000
     23 C10         13.1590     7.1330    35.5580 c          1 1F0       0.687100
     24 O10         13.3860     6.7410    34.4170 o          1 1F0      -0.605100
     25 N10         13.3900     6.3750    36.6630 n          1 1F0      -0.413800
     26 C14         14.1280     5.1290    36.4920 c6         1 1F0       0.104000
     27 C13         14.9080     4.8140    37.7560 c6         1 1F0       0.145800
     28 N12         14.0300     4.7460    38.9220 n3         1 1F0      -0.710600
     29 C12         13.3360     6.0250    39.0890 c6         1 1F0       0.145800
     30 C11         12.5330     6.3710    37.8480 c6         1 1F0       0.104000
     31 C22         13.7460     9.5540    39.0650 ca         1 1F0      -0.036000
     32 C23         14.7000     9.4530    40.0690 ca         1 1F0      -0.158000
     33 C24         15.9850     8.9980    39.7780 ca         1 1F0      -0.008300
     34 C30         17.0820     8.8840    40.8390 c3         1 1F0      -0.009700
     35 C33         18.2270     9.8510    40.4770 c3         1 1F0      -0.082767
     36 C31         17.6270     7.4450    40.8770 c3         1 1F0      -0.082767
     37 C25         16.2770     8.6560    38.4540 ca         1 1F0      -0.213000
     38 C26         15.3260     8.7580    37.4440 ca         1 1F0       0.186100
     39 O27         15.5870     8.4810    36.1450 os         1 1F0      -0.356100
     40 C28         16.8590     7.9180    35.7860 c3         1 1F0       0.166600
     41 C29         16.8450     7.6590    34.2970 c3         1 1F0      -0.102100
     42 C32         16.5720     9.2380    42.2420 c3         1 1F0      -0.082767
     43 C16         13.9210     4.0210    41.3050 c3         1 1F0      -0.049400
     44 C17         14.7930     3.5990    42.4820 c3         1 1F0      -0.309400
     45 S17         13.7910     3.2400    43.9180 s6         1 1F0       1.106000
     46 C19         14.9650     2.7850    45.1710 c3         1 1F0      -0.341100
     47 O17         12.9540     2.0870    43.6270 o          1 1F0      -0.522000
     48 O18         13.1210     4.4640    44.3350 o          1 1F0      -0.522000
     49 C15         14.7970     4.3810    40.1100 c3         1 1F0       0.169800
     50 H1          10.2360     7.4910    35.2110 hc         1 1F0       0.052700
     51 H2           9.7920     8.5630    33.8860 hc         1 1F0       0.052700
     52 H3          11.0370     7.3370    33.6430 hc         1 1F0       0.052700
     53 H4           9.6650    10.5340    37.2900 hc         1 1F0       0.044700
     54 H5           9.0400     9.5450    35.9650 hc         1 1F0       0.044700
     55 H6          10.1550     8.8420    37.1390 hc         1 1F0       0.044700
     56 H10         14.3650     9.7080    34.5940 ha         1 1F0       0.125000
     57 H11         15.5160    10.8250    32.7460 ha         1 1F0       0.127000
     58 H12         11.8860    10.7970    30.4680 ha         1 1F0       0.127000
     59 H13         10.7320     9.6940    32.3190 ha         1 1F0       0.125000
     60 H14          8.8540    10.8710    34.3520 ha         1 1F0       0.124000
     61 H15          8.4460    12.8570    32.9800 ha         1 1F0       0.129000
     62 H16         12.3200    14.3730    34.0100 ha         1 1F0       0.129000
     63 H17         12.7240    12.3700    35.3950 ha         1 1F0       0.124000
     64 H18         13.4330     4.3110    36.2690 h1         1 1F0       0.057200
     65 H19         14.8070     5.2370    35.6510 h1         1 1F0       0.057200
     66 H20         15.4020     3.8490    37.6330 h1         1 1F0       0.044450
     67 H21         15.6910     5.5770    37.8950 h1         1 1F0       0.044450
     68 H23         14.0520     6.8300    39.3030 h1         1 1F0       0.044450
     69 H24         12.6460     5.9610    39.9290 h1         1 1F0       0.044450
     70 H25         12.0510     7.3340    37.9730 h1         1 1F0       0.057200
     71 H26         11.7470     5.6180    37.7060 h1         1 1F0       0.057200
     72 H27         12.7470     9.8920    39.3040 ha         1 1F0       0.131000
     73 H28         14.4230     9.7250    41.0760 ha         1 1F0       0.124000
     74 H29         19.0180     9.7890    41.2280 hc         1 1F0       0.037033
     75 H30         18.6600     9.6090    39.5060 hc         1 1F0       0.037033
     76 H31         17.8660    10.8810    40.4430 hc         1 1F0       0.037033
     77 H32         18.4230     7.3700    41.6210 hc         1 1F0       0.037033
     78 H33         16.8390     6.7410    41.1480 hc         1 1F0       0.037033
     79 H34         18.0370     7.1410    39.9130 hc         1 1F0       0.037033
     80 H35         17.2690     8.3120    38.2060 ha         1 1F0       0.118000
     81 H36         17.0080     6.9920    36.3470 h1         1 1F0       0.033200
     82 H37         17.6530     8.6190    36.0560 h1         1 1F0       0.033200
     83 H38         17.7880     7.1940    34.0030 hc         1 1F0       0.055700
     84 H39         16.0250     6.9910    34.0320 hc         1 1F0       0.055700
     85 H40         16.7310     8.5890    33.7400 hc         1 1F0       0.055700
     86 H41         17.3850     9.1210    42.9600 hc         1 1F0       0.037033
     87 H42         16.2220    10.2700    42.2960 hc         1 1F0       0.037033
     88 H43         15.7560     8.5810    42.5490 hc         1 1F0       0.037033
     89 H44         13.3120     4.8740    41.6050 hc         1 1F0       0.069700
     90 H45         13.2450     3.2110    41.0280 hc         1 1F0       0.069700
     91 H46         15.3630     2.6930    42.2710 h1         1 1F0       0.091700
     92 H47         15.4800     4.3920    42.7830 h1         1 1F0       0.091700
     93 H48         14.3840     2.5590    46.0640 h1         1 1F0       0.104033
     94 H49         15.5120     1.9060    44.8340 h1         1 1F0       0.104033
     95 H50         15.6340     3.6250    45.3480 h1         1 1F0       0.104033
     96 H51         15.4130     3.5180    39.8500 h1         1 1F0       0.033200
     97 H52         15.4860     5.1920    40.3950 h1         1 1F0       0.033200
@<TRIPOS>BOND
     1     1     2 1   
     2     1     9 1   
     3     1    23 1   
     4     2     3 1   
     5     2     4 1   
     6     2     5 1   
     7     3    50 1   
     8     3    51 1   
     9     3    52 1   
    10     4    11 ar  
    11     4    16 ar  
    12     5     6 1   
    13     5     7 1   
    14     5     8 1   
    15     6    53 1   
    16     6    54 1   
    17     6    55 1   
    18     7    17 ar  
    19     7    22 ar  
    20     8     9 2   
    21     9    10 1   
    22    10    31 ar  
    23    10    38 ar  
    24    11    12 ar  
    25    11    56 1   
    26    12    13 ar  
    27    12    57 1   
    28    13    14 1   
    29    13    15 ar  
    30    15    16 ar  
    31    15    58 1   
    32    16    59 1   
    33    17    18 ar  
    34    17    60 1   
    35    18    19 ar  
    36    18    61 1   
    37    19    20 1   
    38    19    21 ar  
    39    21    22 ar  
    40    21    62 1   
    41    22    63 1   
    42    23    24 2   
    43    23    25 1   
    44    25    26 1   
    45    25    30 1   
    46    26    27 1   
    47    26    64 1   
    48    26    65 1   
    49    27    28 1   
    50    27    66 1   
    51    27    67 1   
    52    28    29 1   
    53    28    49 1   
    54    29    30 1   
    55    29    68 1   
    56    29    69 1   
    57    30    70 1   
    58    30    71 1   
    59    31    32 ar  
    60    31    72 1   
    61    32    33 ar  
    62    32    73 1   
    63    33    34 1   
    64    33    37 ar  
    65    34    35 1   
    66    34    36 1   
    67    34    42 1   
    68    35    74 1   
    69    35    75 1   
    70    35    76 1   
    71    36    77 1   
    72    36    78 1   
    73    36    79 1   
    74    37    38 ar  
    75    37    80 1   
    76    38    39 1   
    77    39    40 1   
    78    40    41 1   
    79    40    81 1   
    80    40    82 1   
    81    41    83 1   
    82    41    84 1   
    83    41    85 1   
    84    42    86 1   
    85    42    87 1   
    86    42    88 1   
    87    43    44 1   
    88    43    49 1   
    89    43    89 1   
    90    43    90 1   
    91    44    45 1   
    92    44    91 1   
    93    44    92 1   
    94    45    46 1   
    95    45    47 2   
    96    45    48 2   
    97    46    93 1   
    98    46    94 1   
    99    46    95 1   
   100    49    96 1   
   101    49    97 1   
@<TRIPOS>SUBSTRUCTURE
     1 1F0         1 TEMP              0 ****  ****    0 ROOT
