@<TRIPOS>MOLECULE
1F1
   18    19     1     0     0
SMALL
No Charge or Current Charge


@<TRIPOS>ATOM
      1 O1           2.9350    -1.4850     0.0360 o          1 1F1      -0.724000
      2 C2           2.6280    -0.3010     0.0140 c          1 1F1       0.710600
      3 O3           3.4600     0.5960    -0.0030 o          1 1F1      -0.724000
      4 C4           1.1510     0.0710     0.0090 ca         1 1F1      -0.113600
      5 C5           0.7460     1.4380    -0.0170 ca         1 1F1      -0.099000
      6 C6          -0.6200     1.7920    -0.0230 ca         1 1F1      -0.114000
      7 C7          -1.5620     0.7600    -0.0020 ca         1 1F1      -0.116800
      8 C8          -2.9910     0.8070    -0.0020 cc         1 1F1      -0.248200
      9 C9          -3.4400    -0.5080     0.0240 cd         1 1F1      -0.204100
     10 N10         -2.3170    -1.3730     0.0390 na         1 1F1      -0.232700
     11 C11         -1.1990    -0.5540     0.0230 ca         1 1F1      -0.062200
     12 C12          0.1490    -0.9380     0.0290 ca         1 1F1      -0.117000
     13 H5           1.4930     2.2290    -0.0330 ha         1 1F1       0.126000
     14 H6          -0.9280     2.8350    -0.0420 ha         1 1F1       0.088000
     15 H8          -3.6210     1.6940    -0.0180 ha         1 1F1       0.183000
     16 H9          -4.4590    -0.8880     0.0320 h4         1 1F1       0.186000
     17 H12          0.4160    -1.9920     0.0480 ha         1 1F1       0.128000
     18 HN10        -2.3280    -2.3890     0.0580 hn         1 1F1       0.334000
@<TRIPOS>BOND
     1     1     2 1   
     2     2     3 1   
     3     2     4 1   
     4     4     5 ar  
     5     4    12 ar  
     6     5     6 ar  
     7     5    13 1   
     8     6     7 ar  
     9     6    14 1   
    10     7     8 1   
    11     7    11 ar  
    12     8     9 2   
    13     8    15 1   
    14     9    10 1   
    15     9    16 1   
    16    10    11 1   
    17    10    18 1   
    18    11    12 ar  
    19    12    17 1   
@<TRIPOS>SUBSTRUCTURE
     1 1F1         1 TEMP              0 ****  ****    0 ROOT
