@<TRIPOS>MOLECULE
1F1
   18    19     1     0     0
SMALL
bcc


@<TRIPOS>ATOM
      1 O1           2.8770    -1.5240     0.0210 o          1 1F1      -0.829300
      2 C2           2.6030    -0.3060     0.0140 c          1 1F1       0.921200
      3 O3           3.4210     0.6350     0.0110 o          1 1F1      -0.829300
      4 C4           1.1270     0.0650     0.0090 ca         1 1F1      -0.113600
      5 C5           0.7310     1.4180    -0.0170 ca         1 1F1      -0.117000
      6 C6          -0.5970     1.7910    -0.0240 ca         1 1F1      -0.132000
      7 C7          -1.5850     0.7970    -0.0030 ca         1 1F1      -0.116800
      8 C8          -3.0140     0.7980    -0.0020 cc         1 1F1      -0.198200
      9 C9          -3.4050    -0.5110     0.0240 cd         1 1F1      -0.154100
     10 N10         -2.3080    -1.3220     0.0390 na         1 1F1      -0.182400
     11 C11         -1.1770    -0.5550     0.0240 ca         1 1F1      -0.062200
     12 C12          0.1640    -0.9310     0.0290 ca         1 1F1      -0.135000
     13 H5           1.4980     2.1800    -0.0310 ha         1 1F1       0.144000
     14 H6          -0.8720     2.8390    -0.0450 ha         1 1F1       0.106000
     15 H8          -3.6680     1.6550    -0.0210 ha         1 1F1       0.133000
     16 H9          -4.3980    -0.9330     0.0340 h4         1 1F1       0.136000
     17 H12          0.4530    -1.9740     0.0480 ha         1 1F1       0.146000
     18 HN10        -2.3360    -2.3270     0.0620 hn         1 1F1       0.283700
@<TRIPOS>BOND
     1     1     2 1   
     2     2     3 1   
     3     2     4 1   
     4     4     5 ar  
     5     4    12 ar  
     6     5     6 ar  
     7     5    13 1   
     8     6     7 ar  
     9     6    14 1   
    10     7     8 1   
    11     7    11 ar  
    12     8     9 2   
    13     8    15 1   
    14     9    10 1   
    15     9    16 1   
    16    10    11 1   
    17    10    18 1   
    18    11    12 ar  
    19    12    17 1   
@<TRIPOS>SUBSTRUCTURE
     1 1F1         1 TEMP              0 ****  ****    0 ROOT
