@<TRIPOS>MOLECULE
1F2
  120   124     1     0     0
SMALL
abcg2


@<TRIPOS>ATOM
      1 O1           0.3270     0.2880    -0.4760 os         1 1F2      -0.434100
      2 C2          -3.7160    -2.6470     1.5810 c3         1 1F2      -0.166700
      3 C3          -1.1330    -3.1440     1.7660 c3         1 1F2      -0.154700
      4 C4          -2.4270    -3.1410     0.9600 c          1 1F2       0.577100
      5 C5          -4.6170    -1.9700     0.5460 c5         1 1F2       0.090700
      6 C6          -4.1120    -0.6080    -0.0490 c5         1 1F2       0.187000
      7 C7          -3.6590    -0.7410    -1.5420 c3         1 1F2       0.186300
      8 C8          -0.1150    -2.2500     1.0200 c3         1 1F2      -0.059400
      9 C9           2.1090    -2.0260    -0.2550 c3         1 1F2       0.165300
     10 C10          1.3000    -2.8120     0.8300 c3         1 1F2       0.209000
     11 O11         -2.2470    -0.4720    -1.6050 os         1 1F2      -0.447100
     12 C12         -1.5750    -0.8120    -2.7050 c          1 1F2       0.613100
     13 C13         -0.2650    -0.0550    -2.8350 c3         1 1F2      -0.148700
     14 C14          0.7950    -0.2340    -1.7250 c3         1 1F2       0.216300
     15 C15          1.4210    -1.6580    -1.6020 c3         1 1F2      -0.066700
     16 C17         -4.4150    -3.8710     2.1960 c3         1 1F2      -0.088100
     17 O18         -5.3000     0.2060    -0.0210 os         1 1F2      -0.419100
     18 O19          1.1160    -4.1400     0.3570 os         1 1F2      -0.463000
     19 C20         -1.2810    -2.7420     3.2290 c3         1 1F2      -0.088100
     20 O21          2.7270    -0.9020     0.3540 os         1 1F2      -0.456000
     21 C22          0.6260    -2.8380    -2.1700 c3         1 1F2      -0.097100
     22 C23          2.0640    -2.8080     2.1570 c3         1 1F2      -0.113100
     23 C24         -4.3870     0.1880    -2.5170 c3         1 1F2      -0.093400
     24 C25         -3.0980     0.1040     0.8330 c3         1 1F2      -0.097100
     25 C26         -4.0710     1.6740    -2.3850 c3         1 1F2      -0.086100
     26 O27         -2.0170    -1.5530    -3.5470 o          1 1F2      -0.484000
     27 C28          0.3570    -0.2080    -4.2200 c3         1 1F2      -0.080100
     28 N29         -5.8650    -1.5560     1.1410 ns         1 1F2      -0.534900
     29 C30         -6.2820    -0.3600     0.6910 c          1 1F2       0.690100
     30 O31         -7.3430     0.1890     0.8710 o          1 1F2      -0.535000
     31 C32          3.9360    -0.4990    -0.1870 c6         1 1F2       0.356300
     32 O33          4.8710    -1.5270    -0.0300 os         1 1F2      -0.494000
     33 C34          6.1230    -1.2240    -0.6310 c6         1 1F2       0.186300
     34 C35          6.7210     0.0100     0.0280 c6         1 1F2      -0.149400
     35 C36          5.7440     1.1930    -0.0220 c6         1 1F2       0.194500
     36 C37          4.4020     0.7540     0.5600 c6         1 1F2       0.156300
     37 N38          6.2230     2.4260     0.5780 n3         1 1F2      -0.710600
     38 C39          6.5390     2.3540     1.9870 c3         1 1F2       0.160100
     39 C40          7.2920     3.0320    -0.1840 c3         1 1F2       0.160100
     40 O41          3.4860     1.8110     0.4310 oh         1 1F2      -0.690000
     41 C42          7.0080    -2.4450    -0.5040 c3         1 1F2      -0.088100
     42 C43          2.1970    -5.0370     0.4010 c3         1 1F2       0.147900
     43 C44          0.3690     1.6200    -0.3430 c          1 1F2       0.647100
     44 N45          0.1880     2.0350     0.9290 n          1 1F2      -0.420800
     45 O46          0.5540     2.3930    -1.2620 o          1 1F2      -0.539000
     46 C47          0.1690     3.4750     1.2060 c5         1 1F2       0.175000
     47 C48          0.1140     3.5270     2.7380 c5         1 1F2      -0.089400
     48 C49          0.7890     2.2340     3.1720 c5         1 1F2      -0.102400
     49 C50          0.2920     1.2290     2.1410 c5         1 1F2       0.107000
     50 C51         -0.9740     4.1840     0.5280 ca         1 1F2      -0.146300
     51 C52         -0.7560     5.1920    -0.3990 ca         1 1F2      -0.040000
     52 C53         -1.8430     5.8150    -0.9940 ca         1 1F2      -0.168000
     53 C54         -3.1170     5.3950    -0.6460 ca         1 1F2       0.338900
     54 N55         -3.3450     4.4320     0.2410 nb         1 1F2      -0.665000
     55 C56         -2.2960     3.8530     0.8090 ca         1 1F2       0.347900
     56 H1          -3.5070    -1.9400     2.3860 hc         1 1F2       0.079700
     57 H2          -0.7870    -4.1800     1.7260 hc         1 1F2       0.092700
     58 H3          -4.8060    -2.6810    -0.2650 h1         1 1F2       0.071700
     59 H4          -3.8330    -1.7700    -1.8620 h1         1 1F2       0.074700
     60 H5          -0.5180    -1.9990     0.0450 hc         1 1F2       0.066700
     61 H6          -0.0350    -1.3080     1.5570 hc         1 1F2       0.066700
     62 H7           2.9010    -2.7230    -0.5460 h1         1 1F2       0.050700
     63 H8          -0.5660     0.9940    -2.7680 hc         1 1F2       0.100700
     64 H9           1.6170     0.4130    -2.0410 h1         1 1F2       0.058700
     65 H10          2.2640    -1.5800    -2.2990 hc         1 1F2       0.037700
     66 H11         -4.7320    -4.5710     1.4230 hc         1 1F2       0.044033
     67 H12         -3.7510    -4.4030     2.8770 hc         1 1F2       0.044033
     68 H13         -5.2890    -3.5710     2.7730 hc         1 1F2       0.044033
     69 H14         -1.5810    -1.6980     3.3400 hc         1 1F2       0.036700
     70 H15         -2.0050    -3.3590     3.7620 hc         1 1F2       0.036700
     71 H16         -0.3290    -2.8570     3.7470 hc         1 1F2       0.036700
     72 H17         -0.2770    -3.0980    -1.6260 hc         1 1F2       0.053033
     73 H18          0.3500    -2.6610    -3.2050 hc         1 1F2       0.053033
     74 H19          1.2590    -3.7240    -2.1750 hc         1 1F2       0.053033
     75 H20          1.6180    -3.5250     2.8490 hc         1 1F2       0.045033
     76 H21          3.1150    -3.0710     2.0370 hc         1 1F2       0.045033
     77 H22          2.0250    -1.8300     2.6320 hc         1 1F2       0.045033
     78 H23         -4.1350    -0.1380    -3.5280 hc         1 1F2       0.055700
     79 H24         -5.4600     0.0180    -2.4250 hc         1 1F2       0.055700
     80 H25         -2.1700    -0.4520     0.9330 hc         1 1F2       0.055700
     81 H26         -2.8420     1.0760     0.4150 hc         1 1F2       0.055700
     82 H27         -3.5100     0.2600     1.8320 hc         1 1F2       0.055700
     83 H28         -4.6140     2.2320    -3.1480 hc         1 1F2       0.040367
     84 H29         -4.3530     2.0860    -1.4170 hc         1 1F2       0.040367
     85 H30         -3.0110     1.8830    -2.5320 hc         1 1F2       0.040367
     86 H31         -0.3560     0.0680    -4.9950 hc         1 1F2       0.046367
     87 H32          1.2070     0.4690    -4.3070 hc         1 1F2       0.046367
     88 H33          0.7120    -1.2130    -4.4390 hc         1 1F2       0.046367
     89 H34         -6.5380    -2.2180     1.4940 hn         1 1F2       0.338500
     90 H35          3.8280    -0.2600    -1.2640 h2         1 1F2       0.029700
     91 H36          5.9650    -1.0100    -1.7000 h1         1 1F2       0.033700
     92 H37          6.9810    -0.2310     1.0630 hc         1 1F2       0.057200
     93 H38          7.6510     0.2720    -0.4830 hc         1 1F2       0.057200
     94 H39          5.5660     1.4250    -1.0810 h1         1 1F2       0.066700
     95 H40          4.5300     0.4660     1.6150 h1         1 1F2       0.045700
     96 H42          6.7920     3.3530     2.3480 h1         1 1F2       0.029867
     97 H43          5.6780     2.0170     2.5640 h1         1 1F2       0.029867
     98 H44          7.3850     1.6950     2.2330 h1         1 1F2       0.029867
     99 H45          6.9780     3.1800    -1.2190 h1         1 1F2       0.029867
    100 H46          7.5280     4.0130     0.2330 h1         1 1F2       0.029867
    101 H47          8.2260     2.4500    -0.1990 h1         1 1F2       0.029867
    102 H48          2.6900     1.5710     0.9100 ho         1 1F2       0.507000
    103 H49          6.5650    -3.3100    -0.9980 hc         1 1F2       0.046367
    104 H50          7.9740    -2.2520    -0.9720 hc         1 1F2       0.046367
    105 H51          7.1860    -2.6970     0.5430 hc         1 1F2       0.046367
    106 H52          3.0840    -4.6860    -0.1380 h1         1 1F2       0.030033
    107 H53          2.5030    -5.2870     1.4210 h1         1 1F2       0.030033
    108 H54          1.8630    -5.9530    -0.0850 h1         1 1F2       0.030033
    109 H55          1.1070     3.9230     0.8600 h1         1 1F2       0.072700
    110 H56          0.5980     4.4240     3.1210 hc         1 1F2       0.059700
    111 H57         -0.9210     3.5380     3.0830 hc         1 1F2       0.059700
    112 H58          1.8760     2.3290     3.1120 hc         1 1F2       0.055700
    113 H59          0.5370     1.9400     4.1900 hc         1 1F2       0.055700
    114 H60         -0.6800     0.8190     2.4300 h1         1 1F2       0.055700
    115 H61          0.9820     0.3980     2.0060 h1         1 1F2       0.055700
    116 H62          0.2540     5.4860    -0.6570 ha         1 1F2       0.125000
    117 H63         -1.7090     6.6050    -1.7200 ha         1 1F2       0.123000
    118 H64         -3.9880     5.8560    -1.0970 h4         1 1F2       0.019100
    119 H65         -2.5190     3.0780     1.5370 h4         1 1F2       0.016100
    120 O16         -2.4370    -3.5650    -0.1760 o          1 1F2      -0.517100
@<TRIPOS>BOND
     1     1    14 1   
     2     1    43 1   
     3     2     4 1   
     4     2     5 1   
     5     2    16 1   
     6     2    56 1   
     7     3     4 1   
     8     3     8 1   
     9     3    19 1   
    10     3    57 1   
    11     4   120 2   
    12     5     6 1   
    13     5    28 1   
    14     5    58 1   
    15     6     7 1   
    16     6    17 1   
    17     6    24 1   
    18     7    11 1   
    19     7    23 1   
    20     7    59 1   
    21     8    10 1   
    22     8    60 1   
    23     8    61 1   
    24     9    10 1   
    25     9    15 1   
    26     9    20 1   
    27     9    62 1   
    28    10    18 1   
    29    10    22 1   
    30    11    12 1   
    31    12    13 1   
    32    12    26 2   
    33    13    14 1   
    34    13    27 1   
    35    13    63 1   
    36    14    15 1   
    37    14    64 1   
    38    15    21 1   
    39    15    65 1   
    40    16    66 1   
    41    16    67 1   
    42    16    68 1   
    43    17    29 1   
    44    18    42 1   
    45    19    69 1   
    46    19    70 1   
    47    19    71 1   
    48    20    31 1   
    49    21    72 1   
    50    21    73 1   
    51    21    74 1   
    52    22    75 1   
    53    22    76 1   
    54    22    77 1   
    55    23    25 1   
    56    23    78 1   
    57    23    79 1   
    58    24    80 1   
    59    24    81 1   
    60    24    82 1   
    61    25    83 1   
    62    25    84 1   
    63    25    85 1   
    64    27    86 1   
    65    27    87 1   
    66    27    88 1   
    67    28    29 1   
    68    28    89 1   
    69    29    30 2   
    70    31    32 1   
    71    31    36 1   
    72    31    90 1   
    73    32    33 1   
    74    33    34 1   
    75    33    41 1   
    76    33    91 1   
    77    34    35 1   
    78    34    92 1   
    79    34    93 1   
    80    35    36 1   
    81    35    37 1   
    82    35    94 1   
    83    36    40 1   
    84    36    95 1   
    85    37    38 1   
    86    37    39 1   
    87    38    96 1   
    88    38    97 1   
    89    38    98 1   
    90    39    99 1   
    91    39   100 1   
    92    39   101 1   
    93    40   102 1   
    94    41   103 1   
    95    41   104 1   
    96    41   105 1   
    97    42   106 1   
    98    42   107 1   
    99    42   108 1   
   100    43    44 1   
   101    43    45 2   
   102    44    46 1   
   103    44    49 1   
   104    46    47 1   
   105    46    50 1   
   106    46   109 1   
   107    47    48 1   
   108    47   110 1   
   109    47   111 1   
   110    48    49 1   
   111    48   112 1   
   112    48   113 1   
   113    49   114 1   
   114    49   115 1   
   115    50    51 ar  
   116    50    55 ar  
   117    51    52 ar  
   118    51   116 1   
   119    52    53 ar  
   120    52   117 1   
   121    53    54 ar  
   122    53   118 1   
   123    54    55 ar  
   124    55   119 1   
@<TRIPOS>SUBSTRUCTURE
     1 1F2         1 TEMP              0 ****  ****    0 ROOT
