@<TRIPOS>MOLECULE
1F2
  120   124     1     0     0
SMALL
No Charge or Current Charge


@<TRIPOS>ATOM
      1 O1           0.3300     0.3850    -0.6580 os         1 1F2      -0.434100
      2 C2          -3.7640    -2.3580     1.8410 c3         1 1F2      -0.166700
      3 C3          -1.1840    -3.1700     1.7100 c3         1 1F2      -0.154700
      4 C4          -2.6520    -3.2210     1.1760 c          1 1F2       0.577100
      5 C5          -4.7000    -1.6520     0.8040 c5         1 1F2       0.090700
      6 C6          -4.1050    -0.5030    -0.1000 c5         1 1F2       0.187000
      7 C7          -3.5990    -1.0480    -1.4960 c3         1 1F2       0.186300
      8 C8          -0.2410    -2.3040     0.7960 c3         1 1F2      -0.059400
      9 C9           2.0820    -1.9700    -0.4710 c3         1 1F2       0.165300
     10 C10          1.2070    -2.8550     0.5320 c3         1 1F2       0.209000
     11 O11         -2.4840    -0.2460    -1.9460 os         1 1F2      -0.447100
     12 C12         -1.6140    -0.7590    -2.8690 c          1 1F2       0.613100
     13 C13         -0.3820     0.1440    -3.0300 c3         1 1F2      -0.148700
     14 C14          0.7510    -0.1040    -1.9600 c3         1 1F2       0.216300
     15 C15          1.4920    -1.5150    -1.8650 c3         1 1F2      -0.066700
     16 C17         -4.5830    -3.2580     2.8100 c3         1 1F2      -0.088100
     17 O18         -5.2340     0.3830    -0.2810 os         1 1F2      -0.419100
     18 O19          0.9920    -4.1840    -0.0360 os         1 1F2      -0.463000
     19 C20         -1.0650    -2.8260     3.2270 c3         1 1F2      -0.088100
     20 O21          2.6460    -0.8370     0.2380 os         1 1F2      -0.456000
     21 C22          0.8860    -2.7230    -2.6280 c3         1 1F2      -0.097100
     22 C23          1.9880    -3.0480     1.8660 c3         1 1F2      -0.113100
     23 C24         -4.6760    -1.1640    -2.6220 c3         1 1F2      -0.093400
     24 C25         -3.0260     0.3490     0.6280 c3         1 1F2      -0.097100
     25 C26         -4.9700     0.1320    -3.4180 c3         1 1F2      -0.086100
     26 O27         -1.7890    -1.8090    -3.4680 o          1 1F2      -0.484000
     27 C28          0.1270     0.2410    -4.4940 c3         1 1F2      -0.080100
     28 N29         -5.7830    -0.9050     1.4250 ns         1 1F2      -0.534900
     29 C30         -6.1200     0.2130     0.7320 c          1 1F2       0.690100
     30 O31         -7.0750     0.9290     0.9730 o          1 1F2      -0.535000
     31 C32          3.9450    -0.3840    -0.1880 c6         1 1F2       0.356300
     32 O33          4.8860    -1.4560    -0.0040 os         1 1F2      -0.494000
     33 C34          6.1980    -1.1620    -0.5110 c6         1 1F2       0.186300
     34 C35          6.7970     0.0340     0.2660 c6         1 1F2      -0.149400
     35 C36          5.8500     1.2710     0.1930 c6         1 1F2       0.194500
     36 C37          4.4030     0.8550     0.6470 c6         1 1F2       0.156300
     37 N38          6.4040     2.4650     0.9270 n3         1 1F2      -0.710600
     38 C39          6.5290     2.3130     2.3980 c3         1 1F2       0.160100
     39 C40          7.6220     3.0390     0.3110 c3         1 1F2       0.160100
     40 O41          3.4560     1.9410     0.5310 oh         1 1F2      -0.690000
     41 C42          7.0410    -2.4490    -0.3610 c3         1 1F2      -0.088100
     42 C43          2.1140    -5.0790    -0.2360 c3         1 1F2       0.147900
     43 C44          0.3710     1.7470    -0.4360 c          1 1F2       0.647100
     44 N45          0.2800     2.1020     0.9260 n          1 1F2      -0.420800
     45 O46          0.5400     2.5850    -1.3090 o          1 1F2      -0.539000
     46 C47          0.3710     3.5070     1.3830 c5         1 1F2       0.175000
     47 C48          0.1530     3.3790     2.9190 c5         1 1F2      -0.089400
     48 C49          0.8670     2.0390     3.2090 c5         1 1F2      -0.102400
     49 C50          0.3560     1.1440     2.0500 c5         1 1F2       0.107000
     50 C51         -0.7830     4.3220     0.7920 ca         1 1F2      -0.146300
     51 C52         -0.5120     5.4870     0.0500 ca         1 1F2      -0.040000
     52 C53         -1.5880     6.2080    -0.4910 ca         1 1F2      -0.168000
     53 C54         -2.8970     5.7500    -0.2790 ca         1 1F2       0.338900
     54 N55         -3.1740     4.6330     0.4290 nb         1 1F2      -0.665000
     55 C56         -2.1330     3.9380     0.9450 ca         1 1F2       0.347900
     56 H1          -3.2920    -1.5980     2.4700 hc         1 1F2       0.079700
     57 H2          -0.8340    -4.2010     1.5940 hc         1 1F2       0.092700
     58 H3          -5.1290    -2.4370     0.1650 h1         1 1F2       0.071700
     59 H4          -3.2360    -2.0650    -1.3020 h1         1 1F2       0.074700
     60 H5          -0.7320    -2.1640    -0.1720 hc         1 1F2       0.066700
     61 H6          -0.1630    -1.3120     1.2320 hc         1 1F2       0.066700
     62 H7           2.9150    -2.6270    -0.7390 h1         1 1F2       0.050700
     63 H8          -0.7700     1.1360    -2.7870 hc         1 1F2       0.100700
     64 H9           1.5680     0.5580    -2.2810 h1         1 1F2       0.058700
     65 H10          2.3970    -1.3300    -2.4580 hc         1 1F2       0.037700
     66 H11         -5.1810    -3.9890     2.2500 hc         1 1F2       0.044033
     67 H12         -3.9320    -3.8150     3.4920 hc         1 1F2       0.044033
     68 H13         -5.2650    -2.6600     3.4260 hc         1 1F2       0.044033
     69 H14         -1.2920    -1.7710     3.4200 hc         1 1F2       0.036700
     70 H15         -1.7410    -3.4460     3.8240 hc         1 1F2       0.036700
     71 H16         -0.0590    -3.0120     3.6110 hc         1 1F2       0.036700
     72 H17         -0.0410    -3.0780    -2.1680 hc         1 1F2       0.053033
     73 H18          0.6970    -2.4980    -3.6800 hc         1 1F2       0.053033
     74 H19          1.5920    -3.5610    -2.6300 hc         1 1F2       0.053033
     75 H20          1.6150    -3.9120     2.4280 hc         1 1F2       0.045033
     76 H21          3.0560    -3.2110     1.6780 hc         1 1F2       0.045033
     77 H22          1.9040    -2.1570     2.4980 hc         1 1F2       0.045033
     78 H23         -4.3720    -1.9420    -3.3320 hc         1 1F2       0.055700
     79 H24         -5.6120    -1.5270    -2.1810 hc         1 1F2       0.055700
     80 H25         -2.0970    -0.2100     0.7520 hc         1 1F2       0.055700
     81 H26         -2.7900     1.2560     0.0600 hc         1 1F2       0.055700
     82 H27         -3.3610     0.6680     1.6220 hc         1 1F2       0.055700
     83 H28         -5.7730    -0.0440    -4.1430 hc         1 1F2       0.040367
     84 H29         -5.2840     0.9510    -2.7610 hc         1 1F2       0.040367
     85 H30         -4.0840     0.4610    -3.9750 hc         1 1F2       0.040367
     86 H31         -0.6910     0.5370    -5.1620 hc         1 1F2       0.046367
     87 H32          0.9150     0.9990    -4.5780 hc         1 1F2       0.046367
     88 H33          0.5310    -0.7060    -4.8640 hc         1 1F2       0.046367
     89 H34         -6.3750    -1.2070     2.1880 hn         1 1F2       0.338500
     90 H35          3.9030    -0.1100    -1.2530 h2         1 1F2       0.029700
     91 H36          6.1210    -0.9140    -1.5810 h1         1 1F2       0.033700
     92 H37          6.9610    -0.2620     1.3100 hc         1 1F2       0.057200
     93 H38          7.7810     0.2770    -0.1540 hc         1 1F2       0.057200
     94 H39          5.7650     1.5400    -0.8710 h1         1 1F2       0.066700
     95 H40          4.4500     0.5280     1.6960 h1         1 1F2       0.045700
     96 H42          6.8270     3.2660     2.8560 h1         1 1F2       0.029867
     97 H43          5.5760     2.0150     2.8530 h1         1 1F2       0.029867
     98 H44          7.2890     1.5640     2.6580 h1         1 1F2       0.029867
     99 H45          7.4760     3.1980    -0.7660 h1         1 1F2       0.029867
    100 H46          7.8610     4.0100     0.7640 h1         1 1F2       0.029867
    101 H47          8.4880     2.3790     0.4500 h1         1 1F2       0.029867
    102 H48          2.5750     1.5380     0.6930 ho         1 1F2       0.507000
    103 H49          6.5900    -3.2790    -0.9180 hc         1 1F2       0.046367
    104 H50          8.0550    -2.3010    -0.7490 hc         1 1F2       0.046367
    105 H51          7.1230    -2.7520     0.6890 hc         1 1F2       0.046367
    106 H52          2.8580    -4.6620    -0.9240 h1         1 1F2       0.030033
    107 H53          2.6090    -5.3270     0.7110 h1         1 1F2       0.030033
    108 H54          1.7610    -6.0210    -0.6740 h1         1 1F2       0.030033
    109 H55          1.3540     3.9380     1.1420 h1         1 1F2       0.072700
    110 H56          0.5890     4.2190     3.4710 hc         1 1F2       0.059700
    111 H57         -0.9020     3.3160     3.2080 hc         1 1F2       0.059700
    112 H58          1.9560     2.1550     3.1680 hc         1 1F2       0.055700
    113 H59          0.6190     1.6280     4.1940 hc         1 1F2       0.055700
    114 H60         -0.6340     0.7290     2.2770 h1         1 1F2       0.055700
    115 H61          1.0570     0.3230     1.8610 h1         1 1F2       0.055700
    116 H62          0.5110     5.8240    -0.1080 ha         1 1F2       0.125000
    117 H63         -1.4150     7.1120    -1.0700 ha         1 1F2       0.123000
    118 H64         -3.7490     6.2920    -0.6870 h4         1 1F2       0.019100
    119 H65         -2.3970     3.0460     1.5090 h4         1 1F2       0.016100
    120 O16         -2.9570    -4.0470     0.3260 o          1 1F2      -0.517100
@<TRIPOS>BOND
     1     1    14 1   
     2     1    43 1   
     3     2     4 1   
     4     2     5 1   
     5     2    16 1   
     6     2    56 1   
     7     3     4 1   
     8     3     8 1   
     9     3    19 1   
    10     3    57 1   
    11     4   120 2   
    12     5     6 1   
    13     5    28 1   
    14     5    58 1   
    15     6     7 1   
    16     6    17 1   
    17     6    24 1   
    18     7    11 1   
    19     7    23 1   
    20     7    59 1   
    21     8    10 1   
    22     8    60 1   
    23     8    61 1   
    24     9    10 1   
    25     9    15 1   
    26     9    20 1   
    27     9    62 1   
    28    10    18 1   
    29    10    22 1   
    30    11    12 1   
    31    12    13 1   
    32    12    26 2   
    33    13    14 1   
    34    13    27 1   
    35    13    63 1   
    36    14    15 1   
    37    14    64 1   
    38    15    21 1   
    39    15    65 1   
    40    16    66 1   
    41    16    67 1   
    42    16    68 1   
    43    17    29 1   
    44    18    42 1   
    45    19    69 1   
    46    19    70 1   
    47    19    71 1   
    48    20    31 1   
    49    21    72 1   
    50    21    73 1   
    51    21    74 1   
    52    22    75 1   
    53    22    76 1   
    54    22    77 1   
    55    23    25 1   
    56    23    78 1   
    57    23    79 1   
    58    24    80 1   
    59    24    81 1   
    60    24    82 1   
    61    25    83 1   
    62    25    84 1   
    63    25    85 1   
    64    27    86 1   
    65    27    87 1   
    66    27    88 1   
    67    28    29 1   
    68    28    89 1   
    69    29    30 2   
    70    31    32 1   
    71    31    36 1   
    72    31    90 1   
    73    32    33 1   
    74    33    34 1   
    75    33    41 1   
    76    33    91 1   
    77    34    35 1   
    78    34    92 1   
    79    34    93 1   
    80    35    36 1   
    81    35    37 1   
    82    35    94 1   
    83    36    40 1   
    84    36    95 1   
    85    37    38 1   
    86    37    39 1   
    87    38    96 1   
    88    38    97 1   
    89    38    98 1   
    90    39    99 1   
    91    39   100 1   
    92    39   101 1   
    93    40   102 1   
    94    41   103 1   
    95    41   104 1   
    96    41   105 1   
    97    42   106 1   
    98    42   107 1   
    99    42   108 1   
   100    43    44 1   
   101    43    45 2   
   102    44    46 1   
   103    44    49 1   
   104    46    47 1   
   105    46    50 1   
   106    46   109 1   
   107    47    48 1   
   108    47   110 1   
   109    47   111 1   
   110    48    49 1   
   111    48   112 1   
   112    48   113 1   
   113    49   114 1   
   114    49   115 1   
   115    50    51 ar  
   116    50    55 ar  
   117    51    52 ar  
   118    51   116 1   
   119    52    53 ar  
   120    52   117 1   
   121    53    54 ar  
   122    53   118 1   
   123    54    55 ar  
   124    55   119 1   
@<TRIPOS>SUBSTRUCTURE
     1 1F2         1 TEMP              0 ****  ****    0 ROOT
