@<TRIPOS>MOLECULE
1F3
  126   130     1     0     0
SMALL
abcg2


@<TRIPOS>ATOM
      1 C52          5.8580     0.0440     0.5110 ca         1 1F3      -0.059500
      2 C56          5.1410    -1.4700    -1.1800 ca         1 1F3      -0.059500
      3 C53          6.2050    -1.0120     1.3440 ca         1 1F3      -0.153500
      4 C55          5.4760    -2.5330    -0.3650 ca         1 1F3      -0.153500
      5 C51          5.3290    -0.1570    -0.7540 ca         1 1F3      -0.125300
      6 C54          6.0160    -2.3230     0.9080 ca         1 1F3      -0.013000
      7 C3          -3.9710    -0.2670     0.3310 c          1 1F3       0.584100
      8 C11         -0.6150    -1.6220    -1.2540 c          1 1F3       0.617100
      9 C41         -4.1290    -4.9120     1.3690 c          1 1F3       0.698100
     10 C58          6.8710    -3.5680     2.8950 c          1 1F3       0.608100
     11 C44          2.5560     0.9290    -1.5650 c          1 1F3       0.664100
     12 C49          5.1050     0.7980    -4.0430 c2         1 1F3      -0.309200
     13 C48          5.9770     1.1190    -2.8640 c5         1 1F3      -0.045200
     14 C7          -4.1290     2.2510    -0.3650 c3         1 1F3      -0.090400
     15 C31         -0.2780     2.9430     3.7490 c6         1 1F3      -0.146400
     16 C50          3.8380     0.6790    -3.6660 c2         1 1F3      -0.057400
     17 C47          5.0120     1.0100    -1.6520 c5         1 1F3       0.171000
     18 C2          -4.8460     0.9220    -0.0220 c3         1 1F3      -0.149700
     19 C1          -4.6070    -1.4680     1.0210 c3         1 1F3      -0.171700
     20 C12         -0.6010    -0.4780    -2.2450 c3         1 1F3      -0.130700
     21 C14         -0.5740     2.0490    -2.1350 c3         1 1F3      -0.087700
     22 C4          -3.6210    -2.6520     1.0340 c5         1 1F3       0.101700
     23 C32          0.4670     3.9950     2.9140 c6         1 1F3       0.190500
     24 C13          0.1860     0.7510    -1.7570 c3         1 1F3       0.196300
     25 C8          -1.7000     2.2120    -1.0750 c3         1 1F3       0.172300
     26 C33         -0.3410     4.2990     1.6520 c6         1 1F3       0.161300
     27 C30         -0.6180     1.7190     2.9090 c6         1 1F3       0.183300
     28 C6          -1.9510    -3.5720    -0.7290 c3         1 1F3       0.180300
     29 C28         -0.6460     2.9790     0.9380 c6         1 1F3       0.344300
     30 C5          -3.4420    -3.4750    -0.3000 c5         1 1F3       0.178000
     31 C9          -3.1530     2.4360    -1.5690 c3         1 1F3       0.210000
     32 C59          7.1190    -4.9940     3.3230 c3         1 1F3      -0.184100
     33 C19         -5.9570     0.4960    -0.9980 c3         1 1F3      -0.088100
     34 C16         -4.9930    -1.0600     2.4510 c3         1 1F3      -0.090100
     35 C27         -0.1730    -0.9760    -3.6300 c3         1 1F3      -0.074100
     36 C21          0.3230     3.2720    -2.2840 c3         1 1F3      -0.081100
     37 C38         -1.4360     0.6910     3.6590 c3         1 1F3      -0.086100
     38 C24         -4.3490    -3.0590    -1.4460 c3         1 1F3      -0.087100
     39 C22         -3.5330     1.5200    -2.7270 c3         1 1F3      -0.124100
     40 C23         -1.6290    -4.7960    -1.5830 c3         1 1F3      -0.085400
     41 N40         -4.0500    -3.6980     1.9300 ns         1 1F3      -0.546900
     42 N45          3.6970     0.8600    -2.2850 n          1 1F3      -0.328000
     43 N57          6.3260    -3.4640     1.6540 ns         1 1F3      -0.149000
     44 N34          0.8440     5.2070     3.6230 n3         1 1F3      -0.709600
     45 O15         -2.7820    -0.2910     0.1170 o          1 1F3      -0.524100
     46 O26          0.2050    -1.8250    -0.3990 o          1 1F3      -0.470000
     47 O42         -4.4180    -5.9670     1.8820 o          1 1F3      -0.536000
     48 O60          7.1570    -2.6120     3.5940 o          1 1F3      -0.579100
     49 O46          2.5320     1.1580    -0.3750 o          1 1F3      -0.518000
     50 O10         -1.6730    -2.3980    -1.4910 os         1 1F3      -0.463100
     51 O17         -3.8430    -4.8080     0.0640 os         1 1F3      -0.429100
     52 O29         -1.3660     2.1240     1.7770 os         1 1F3      -0.494000
     53 O37          0.4010     5.1650     0.8310 oh         1 1F3      -0.696000
     54 O43          1.4890     0.7190    -2.3350 os         1 1F3      -0.457100
     55 O20         -1.4190     3.2770    -0.1710 os         1 1F3      -0.444000
     56 O18         -3.1680     3.7990    -1.9810 os         1 1F3      -0.445000
     57 H1           6.0080     1.0550     0.8710 ha         1 1F3       0.116000
     58 H2           4.7280    -1.6780    -2.1600 ha         1 1F3       0.116000
     59 H3           6.6100    -0.8010     2.3200 ha         1 1F3       0.127000
     60 H4           5.3180    -3.5450    -0.7200 ha         1 1F3       0.127000
     61 H5           5.4600     0.7000    -5.0570 ha         1 1F3       0.202000
     62 H6           6.8170     0.4290    -2.7640 hc         1 1F3       0.060700
     63 H7           6.4040     2.1220    -2.9420 hc         1 1F3       0.060700
     64 H8          -4.9510     2.9600    -0.4960 hc         1 1F3       0.063700
     65 H9          -3.6200     2.5820     0.5400 hc         1 1F3       0.063700
     66 H10          0.3300     2.6390     4.6050 hc         1 1F3       0.052700
     67 H11         -1.2080     3.3600     4.1490 hc         1 1F3       0.052700
     68 H12          2.9740     0.4720    -4.2780 h4         1 1F3       0.219000
     69 H13          5.0310     1.9270    -1.0610 h1         1 1F3       0.077700
     70 H14         -5.3730     1.1720     0.9050 hc         1 1F3       0.063700
     71 H15         -5.5290    -1.7460     0.5030 hc         1 1F3       0.080700
     72 H16         -1.6380    -0.1660    -2.3440 hc         1 1F3       0.084700
     73 H17         -1.0220     1.8860    -3.1190 hc         1 1F3       0.057700
     74 H18         -2.6490    -2.2740     1.3600 h1         1 1F3       0.083700
     75 H19          1.4100     3.5420     2.5780 h1         1 1F3       0.073700
     76 H20          0.2970     0.7070    -0.6730 h1         1 1F3       0.092700
     77 H21         -1.7490     1.2860    -0.5100 h1         1 1F3       0.086700
     78 H22         -1.3090     4.7440     1.9300 h1         1 1F3       0.044700
     79 H23          0.3200     1.2470     2.5740 h1         1 1F3       0.051700
     80 H24         -1.3200    -3.5910     0.1660 h1         1 1F3       0.073700
     81 H25          0.3100     2.4990     0.6550 h2         1 1F3       0.051700
     82 H26          7.3130    -5.0360     4.3910 hc         1 1F3       0.063367
     83 H27          6.2750    -5.6430     3.0910 hc         1 1F3       0.063367
     84 H28          7.9900    -5.3890     2.7980 hc         1 1F3       0.063367
     85 H29         -5.5920    -0.0360    -1.8740 hc         1 1F3       0.040033
     86 H30         -6.6860    -0.1460    -0.5040 hc         1 1F3       0.040033
     87 H31         -6.4930     1.3790    -1.3480 hc         1 1F3       0.040033
     88 H32         -5.6710    -0.2090     2.4510 hc         1 1F3       0.045700
     89 H33         -5.5110    -1.8710     2.9590 hc         1 1F3       0.045700
     90 H34         -4.1160    -0.7880     3.0420 hc         1 1F3       0.045700
     91 H35         -0.8690    -1.7310    -3.9930 hc         1 1F3       0.045033
     92 H36         -0.1790    -0.1550    -4.3480 hc         1 1F3       0.045033
     93 H37          0.8250    -1.4110    -3.6220 hc         1 1F3       0.045033
     94 H38          0.9800     3.1590    -3.1460 hc         1 1F3       0.046033
     95 H39         -0.2830     4.1620    -2.4530 hc         1 1F3       0.046033
     96 H40          0.9520     3.4560    -1.4130 hc         1 1F3       0.046033
     97 H41         -2.3970     1.1070     3.9680 hc         1 1F3       0.041700
     98 H42         -1.6220    -0.1840     3.0370 hc         1 1F3       0.041700
     99 H43         -0.9050     0.3650     4.5530 hc         1 1F3       0.041700
    100 H44         -4.1520    -2.0470    -1.7930 hc         1 1F3       0.052700
    101 H45         -4.2130    -3.7250    -2.2990 hc         1 1F3       0.052700
    102 H46         -5.3950    -3.1220    -1.1490 hc         1 1F3       0.052700
    103 H47         -4.5660     1.6780    -3.0360 hc         1 1F3       0.044700
    104 H48         -2.9080     1.6810    -3.6050 hc         1 1F3       0.044700
    105 H49         -3.4570     0.4710    -2.4470 hc         1 1F3       0.044700
    106 H50          0.5230    -4.6960    -1.2730 hc         1 1F3       0.038033
    107 H51          0.0170    -5.7680    -2.5730 hc         1 1F3       0.038033
    108 H52          0.0000    -4.0340    -2.8230 hc         1 1F3       0.038033
    109 H53          0.1000     6.8940     4.5880 h1         1 1F3       0.028533
    110 H54         -1.0870     6.0400     3.6150 h1         1 1F3       0.028533
    111 H55         -0.6070     5.3950     5.1890 h1         1 1F3       0.028533
    112 H56          1.7280     4.4030     5.4060 h1         1 1F3       0.028533
    113 H57          2.7860     4.5270     3.9930 h1         1 1F3       0.028533
    114 H58          2.3200     5.9780     4.8780 h1         1 1F3       0.028533
    115 H59         -4.1970     5.3410    -2.7700 h1         1 1F3       0.025367
    116 H60         -4.2870     3.8710    -3.7460 h1         1 1F3       0.025367
    117 H61         -5.2360     4.0120    -2.2590 h1         1 1F3       0.025367
    118 H62         -1.7980    -5.6870    -0.9780 hc         1 1F3       0.059700
    119 H63         -2.3150    -4.8580    -2.4320 hc         1 1F3       0.059700
    120 H64         -4.0740    -3.5910     2.9310 hn         1 1F3       0.347500
    121 H65          6.1380    -4.3370     1.1840 hn         1 1F3       0.147000
    122 H67         -0.1050     5.3010     0.0230 ho         1 1F3       0.513000
    123 C25         -0.1920    -4.8150    -2.0870 c3         1 1F3      -0.093100
    124 C35         -0.2390     5.9020     4.2860 c3         1 1F3       0.160100
    125 C36          1.9620     5.0110     4.5190 c3         1 1F3       0.160100
    126 C39         -4.2720     4.2540    -2.7200 c3         1 1F3       0.146900
@<TRIPOS>BOND
     1     1     3 ar  
     2     1     5 ar  
     3     1    57 1   
     4     2     4 ar  
     5     2     5 ar  
     6     2    58 1   
     7     3     6 ar  
     8     3    59 1   
     9     4     6 ar  
    10     4    60 1   
    11     5    17 1   
    12     6    43 1   
    13     7    18 1   
    14     7    19 1   
    15     7    45 2   
    16     8    20 1   
    17     8    46 2   
    18     8    50 1   
    19     9    41 1   
    20     9    47 2   
    21     9    51 1   
    22    10    32 1   
    23    10    43 1   
    24    10    48 2   
    25    11    42 1   
    26    11    49 2   
    27    11    54 1   
    28    12    13 1   
    29    12    16 2   
    30    12    61 1   
    31    13    17 1   
    32    13    62 1   
    33    13    63 1   
    34    14    18 1   
    35    14    31 1   
    36    14    64 1   
    37    14    65 1   
    38    15    23 1   
    39    15    27 1   
    40    15    66 1   
    41    15    67 1   
    42    16    42 1   
    43    16    68 1   
    44    17    42 1   
    45    17    69 1   
    46    18    33 1   
    47    18    70 1   
    48    19    22 1   
    49    19    34 1   
    50    19    71 1   
    51    20    24 1   
    52    20    35 1   
    53    20    72 1   
    54    21    24 1   
    55    21    25 1   
    56    21    36 1   
    57    21    73 1   
    58    22    30 1   
    59    22    41 1   
    60    22    74 1   
    61    23    26 1   
    62    23    44 1   
    63    23    75 1   
    64    24    54 1   
    65    24    76 1   
    66    25    31 1   
    67    25    55 1   
    68    25    77 1   
    69    26    29 1   
    70    26    53 1   
    71    26    78 1   
    72    27    37 1   
    73    27    52 1   
    74    27    79 1   
    75    28    30 1   
    76    28    40 1   
    77    28    50 1   
    78    28    80 1   
    79    29    52 1   
    80    29    55 1   
    81    29    81 1   
    82    30    38 1   
    83    30    51 1   
    84    31    39 1   
    85    31    56 1   
    86    32    82 1   
    87    32    83 1   
    88    32    84 1   
    89    33    85 1   
    90    33    86 1   
    91    33    87 1   
    92    34    88 1   
    93    34    89 1   
    94    34    90 1   
    95    35    91 1   
    96    35    92 1   
    97    35    93 1   
    98    36    94 1   
    99    36    95 1   
   100    36    96 1   
   101    37    97 1   
   102    37    98 1   
   103    37    99 1   
   104    38   100 1   
   105    38   101 1   
   106    38   102 1   
   107    39   103 1   
   108    39   104 1   
   109    39   105 1   
   110    40   118 1   
   111    40   119 1   
   112    40   123 1   
   113    41   120 1   
   114    43   121 1   
   115    44   124 1   
   116    44   125 1   
   117    53   122 1   
   118    56   126 1   
   119   106   123 1   
   120   107   123 1   
   121   108   123 1   
   122   109   124 1   
   123   110   124 1   
   124   111   124 1   
   125   112   125 1   
   126   113   125 1   
   127   114   125 1   
   128   115   126 1   
   129   116   126 1   
   130   117   126 1   
@<TRIPOS>SUBSTRUCTURE
     1 1F3         1 TEMP              0 ****  ****    0 ROOT
