@<TRIPOS>MOLECULE
1F3
  126   130     1     0     0
SMALL
No Charge or Current Charge


@<TRIPOS>ATOM
      1 C52          0.0000     0.0000     0.0000 ca         1 1F3      -0.059500
      2 C56          0.0000     0.0000     0.0000 ca         1 1F3      -0.059500
      3 C53          0.0000     0.0000     0.0000 ca         1 1F3      -0.153500
      4 C55          0.0000     0.0000     0.0000 ca         1 1F3      -0.153500
      5 C51          0.0000     0.0000     0.0000 ca         1 1F3      -0.125300
      6 C54          0.0000     0.0000     0.0000 ca         1 1F3      -0.013000
      7 C3           0.0000     0.0000     0.0000 c          1 1F3       0.584100
      8 C11          0.0000     0.0000     0.0000 c          1 1F3       0.617100
      9 C41          0.0000     0.0000     0.0000 c          1 1F3       0.698100
     10 C58          0.0000     0.0000     0.0000 c          1 1F3       0.608100
     11 C44          0.0000     0.0000     0.0000 c          1 1F3       0.664100
     12 C49          0.0000     0.0000     0.0000 c2         1 1F3      -0.309200
     13 C48          0.0000     0.0000     0.0000 c5         1 1F3      -0.045200
     14 C7           0.0000     0.0000     0.0000 c3         1 1F3      -0.090400
     15 C31          0.0000     0.0000     0.0000 c6         1 1F3      -0.146400
     16 C50          0.0000     0.0000     0.0000 c2         1 1F3      -0.057400
     17 C47          0.0000     0.0000     0.0000 c5         1 1F3       0.171000
     18 C2           0.0000     0.0000     0.0000 c3         1 1F3      -0.149700
     19 C1           0.0000     0.0000     0.0000 c3         1 1F3      -0.171700
     20 C12          0.0000     0.0000     0.0000 c3         1 1F3      -0.130700
     21 C14          0.0000     0.0000     0.0000 c3         1 1F3      -0.087700
     22 C4           0.0000     0.0000     0.0000 c5         1 1F3       0.101700
     23 C32          0.0000     0.0000     0.0000 c6         1 1F3       0.190500
     24 C13          0.0000     0.0000     0.0000 c3         1 1F3       0.196300
     25 C8           0.0000     0.0000     0.0000 c3         1 1F3       0.172300
     26 C33          0.0000     0.0000     0.0000 c6         1 1F3       0.161300
     27 C30          0.0000     0.0000     0.0000 c6         1 1F3       0.183300
     28 C6           0.0000     0.0000     0.0000 c3         1 1F3       0.180300
     29 C28          0.0000     0.0000     0.0000 c6         1 1F3       0.344300
     30 C5           0.0000     0.0000     0.0000 c5         1 1F3       0.178000
     31 C9           0.0000     0.0000     0.0000 c3         1 1F3       0.210000
     32 C59          0.0000     0.0000     0.0000 c3         1 1F3      -0.184100
     33 C19          0.0000     0.0000     0.0000 c3         1 1F3      -0.088100
     34 C16          0.0000     0.0000     0.0000 c3         1 1F3      -0.090100
     35 C27          0.0000     0.0000     0.0000 c3         1 1F3      -0.074100
     36 C21          0.0000     0.0000     0.0000 c3         1 1F3      -0.081100
     37 C38          0.0000     0.0000     0.0000 c3         1 1F3      -0.086100
     38 C24          0.0000     0.0000     0.0000 c3         1 1F3      -0.087100
     39 C22          0.0000     0.0000     0.0000 c3         1 1F3      -0.124100
     40 C23          0.0000     0.0000     0.0000 c3         1 1F3      -0.085400
     41 N40          0.0000     0.0000     0.0000 ns         1 1F3      -0.546900
     42 N45          0.0000     0.0000     0.0000 n          1 1F3      -0.328000
     43 N57          0.0000     0.0000     0.0000 ns         1 1F3      -0.149000
     44 N34          0.0000     0.0000     0.0000 n3         1 1F3      -0.709600
     45 O15          0.0000     0.0000     0.0000 o          1 1F3      -0.524100
     46 O26          0.0000     0.0000     0.0000 o          1 1F3      -0.470000
     47 O42          0.0000     0.0000     0.0000 o          1 1F3      -0.536000
     48 O60          0.0000     0.0000     0.0000 o          1 1F3      -0.579100
     49 O46          0.0000     0.0000     0.0000 o          1 1F3      -0.518000
     50 O10          0.0000     0.0000     0.0000 os         1 1F3      -0.463100
     51 O17          0.0000     0.0000     0.0000 os         1 1F3      -0.429100
     52 O29          0.0000     0.0000     0.0000 os         1 1F3      -0.494000
     53 O37          0.0000     0.0000     0.0000 oh         1 1F3      -0.696000
     54 O43          0.0000     0.0000     0.0000 os         1 1F3      -0.457100
     55 O20          0.0000     0.0000     0.0000 os         1 1F3      -0.444000
     56 O18          0.0000     0.0000     0.0000 os         1 1F3      -0.445000
     57 H1           0.0000     0.0000     0.0000 ha         1 1F3       0.116000
     58 H2           0.0000     0.0000     0.0000 ha         1 1F3       0.116000
     59 H3           0.0000     0.0000     0.0000 ha         1 1F3       0.127000
     60 H4           0.0000     0.0000     0.0000 ha         1 1F3       0.127000
     61 H5           0.0000     0.0000     0.0000 ha         1 1F3       0.202000
     62 H6           0.0000     0.0000     0.0000 hc         1 1F3       0.060700
     63 H7           0.0000     0.0000     0.0000 hc         1 1F3       0.060700
     64 H8           0.0000     0.0000     0.0000 hc         1 1F3       0.063700
     65 H9           0.0000     0.0000     0.0000 hc         1 1F3       0.063700
     66 H10          0.0000     0.0000     0.0000 hc         1 1F3       0.052700
     67 H11          0.0000     0.0000     0.0000 hc         1 1F3       0.052700
     68 H12          0.0000     0.0000     0.0000 h4         1 1F3       0.219000
     69 H13          0.0000     0.0000     0.0000 h1         1 1F3       0.077700
     70 H14          0.0000     0.0000     0.0000 hc         1 1F3       0.063700
     71 H15          0.0000     0.0000     0.0000 hc         1 1F3       0.080700
     72 H16          0.0000     0.0000     0.0000 hc         1 1F3       0.084700
     73 H17          0.0000     0.0000     0.0000 hc         1 1F3       0.057700
     74 H18          0.0000     0.0000     0.0000 h1         1 1F3       0.083700
     75 H19          0.0000     0.0000     0.0000 h1         1 1F3       0.073700
     76 H20          0.0000     0.0000     0.0000 h1         1 1F3       0.092700
     77 H21          0.0000     0.0000     0.0000 h1         1 1F3       0.086700
     78 H22          0.0000     0.0000     0.0000 h1         1 1F3       0.044700
     79 H23          0.0000     0.0000     0.0000 h1         1 1F3       0.051700
     80 H24          0.0000     0.0000     0.0000 h1         1 1F3       0.073700
     81 H25          0.0000     0.0000     0.0000 h2         1 1F3       0.051700
     82 H26          0.0000     0.0000     0.0000 hc         1 1F3       0.063367
     83 H27          0.0000     0.0000     0.0000 hc         1 1F3       0.063367
     84 H28          0.0000     0.0000     0.0000 hc         1 1F3       0.063367
     85 H29          0.0000     0.0000     0.0000 hc         1 1F3       0.040033
     86 H30          0.0000     0.0000     0.0000 hc         1 1F3       0.040033
     87 H31          0.0000     0.0000     0.0000 hc         1 1F3       0.040033
     88 H32          0.0000     0.0000     0.0000 hc         1 1F3       0.045700
     89 H33          0.0000     0.0000     0.0000 hc         1 1F3       0.045700
     90 H34          0.0000     0.0000     0.0000 hc         1 1F3       0.045700
     91 H35          0.0000     0.0000     0.0000 hc         1 1F3       0.045033
     92 H36          0.0000     0.0000     0.0000 hc         1 1F3       0.045033
     93 H37          0.0000     0.0000     0.0000 hc         1 1F3       0.045033
     94 H38          0.0000     0.0000     0.0000 hc         1 1F3       0.046033
     95 H39          0.0000     0.0000     0.0000 hc         1 1F3       0.046033
     96 H40          0.0000     0.0000     0.0000 hc         1 1F3       0.046033
     97 H41          0.0000     0.0000     0.0000 hc         1 1F3       0.041700
     98 H42          0.0000     0.0000     0.0000 hc         1 1F3       0.041700
     99 H43          0.0000     0.0000     0.0000 hc         1 1F3       0.041700
    100 H44          0.0000     0.0000     0.0000 hc         1 1F3       0.052700
    101 H45          0.0000     0.0000     0.0000 hc         1 1F3       0.052700
    102 H46          0.0000     0.0000     0.0000 hc         1 1F3       0.052700
    103 H47          0.0000     0.0000     0.0000 hc         1 1F3       0.044700
    104 H48          0.0000     0.0000     0.0000 hc         1 1F3       0.044700
    105 H49          0.0000     0.0000     0.0000 hc         1 1F3       0.044700
    106 H50          0.0000     0.0000     0.0000 hc         1 1F3       0.038033
    107 H51          0.0000     0.0000     0.0000 hc         1 1F3       0.038033
    108 H52          0.0000     0.0000     0.0000 hc         1 1F3       0.038033
    109 H53          0.0000     0.0000     0.0000 h1         1 1F3       0.028533
    110 H54          0.0000     0.0000     0.0000 h1         1 1F3       0.028533
    111 H55          0.0000     0.0000     0.0000 h1         1 1F3       0.028533
    112 H56          0.0000     0.0000     0.0000 h1         1 1F3       0.028533
    113 H57          0.0000     0.0000     0.0000 h1         1 1F3       0.028533
    114 H58          0.0000     0.0000     0.0000 h1         1 1F3       0.028533
    115 H59          0.0000     0.0000     0.0000 h1         1 1F3       0.025367
    116 H60          0.0000     0.0000     0.0000 h1         1 1F3       0.025367
    117 H61          0.0000     0.0000     0.0000 h1         1 1F3       0.025367
    118 H62          0.0000     0.0000     0.0000 hc         1 1F3       0.059700
    119 H63          0.0000     0.0000     0.0000 hc         1 1F3       0.059700
    120 H64          0.0000     0.0000     0.0000 hn         1 1F3       0.347500
    121 H65          0.0000     0.0000     0.0000 hn         1 1F3       0.147000
    122 H67          0.0000     0.0000     0.0000 ho         1 1F3       0.513000
    123 C25          0.0000     0.0000     0.0000 c3         1 1F3      -0.093100
    124 C35          0.0000     0.0000     0.0000 c3         1 1F3       0.160100
    125 C36          0.0000     0.0000     0.0000 c3         1 1F3       0.160100
    126 C39          0.0000     0.0000     0.0000 c3         1 1F3       0.146900
@<TRIPOS>BOND
     1     1     3 ar  
     2     1     5 ar  
     3     1    57 1   
     4     2     4 ar  
     5     2     5 ar  
     6     2    58 1   
     7     3     6 ar  
     8     3    59 1   
     9     4     6 ar  
    10     4    60 1   
    11     5    17 1   
    12     6    43 1   
    13     7    18 1   
    14     7    19 1   
    15     7    45 2   
    16     8    20 1   
    17     8    46 2   
    18     8    50 1   
    19     9    41 1   
    20     9    47 2   
    21     9    51 1   
    22    10    32 1   
    23    10    43 1   
    24    10    48 2   
    25    11    42 1   
    26    11    49 2   
    27    11    54 1   
    28    12    13 1   
    29    12    16 2   
    30    12    61 1   
    31    13    17 1   
    32    13    62 1   
    33    13    63 1   
    34    14    18 1   
    35    14    31 1   
    36    14    64 1   
    37    14    65 1   
    38    15    23 1   
    39    15    27 1   
    40    15    66 1   
    41    15    67 1   
    42    16    42 1   
    43    16    68 1   
    44    17    42 1   
    45    17    69 1   
    46    18    33 1   
    47    18    70 1   
    48    19    22 1   
    49    19    34 1   
    50    19    71 1   
    51    20    24 1   
    52    20    35 1   
    53    20    72 1   
    54    21    24 1   
    55    21    25 1   
    56    21    36 1   
    57    21    73 1   
    58    22    30 1   
    59    22    41 1   
    60    22    74 1   
    61    23    26 1   
    62    23    44 1   
    63    23    75 1   
    64    24    54 1   
    65    24    76 1   
    66    25    31 1   
    67    25    55 1   
    68    25    77 1   
    69    26    29 1   
    70    26    53 1   
    71    26    78 1   
    72    27    37 1   
    73    27    52 1   
    74    27    79 1   
    75    28    30 1   
    76    28    40 1   
    77    28    50 1   
    78    28    80 1   
    79    29    52 1   
    80    29    55 1   
    81    29    81 1   
    82    30    38 1   
    83    30    51 1   
    84    31    39 1   
    85    31    56 1   
    86    32    82 1   
    87    32    83 1   
    88    32    84 1   
    89    33    85 1   
    90    33    86 1   
    91    33    87 1   
    92    34    88 1   
    93    34    89 1   
    94    34    90 1   
    95    35    91 1   
    96    35    92 1   
    97    35    93 1   
    98    36    94 1   
    99    36    95 1   
   100    36    96 1   
   101    37    97 1   
   102    37    98 1   
   103    37    99 1   
   104    38   100 1   
   105    38   101 1   
   106    38   102 1   
   107    39   103 1   
   108    39   104 1   
   109    39   105 1   
   110    40   118 1   
   111    40   119 1   
   112    40   123 1   
   113    41   120 1   
   114    43   121 1   
   115    44   124 1   
   116    44   125 1   
   117    53   122 1   
   118    56   126 1   
   119   106   123 1   
   120   107   123 1   
   121   108   123 1   
   122   109   124 1   
   123   110   124 1   
   124   111   124 1   
   125   112   125 1   
   126   113   125 1   
   127   114   125 1   
   128   115   126 1   
   129   116   126 1   
   130   117   126 1   
@<TRIPOS>SUBSTRUCTURE
     1 1F3         1 TEMP              0 ****  ****    0 ROOT
