@<TRIPOS>MOLECULE
1F6
   50    52     1     0     0
SMALL
No Charge or Current Charge


@<TRIPOS>ATOM
      1 C1           3.4460     0.4890    -0.6430 ca         1 1F6      -0.202300
      2 C2           2.2560    -0.1750    -0.2880 ca         1 1F6      -0.069000
      3 C3           1.2000     0.4930     0.3810 ca         1 1F6       0.053600
      4 C4           1.3700     1.8370     0.7540 ca         1 1F6       0.085600
      5 C5           2.5250     2.5240     0.3160 ca         1 1F6      -0.144000
      6 C6           3.5620     1.8580    -0.3510 ca         1 1F6      -0.056000
      7 N7           0.0270    -0.2590     0.7510 n          1 1F6      -0.243200
      8 C8          -1.3100     0.1860     0.5460 c          1 1F6       0.625200
      9 C9          -1.6000     1.5630     0.0610 cc         1 1F6      -0.457400
     10 C10         -0.8890     2.7640     0.5420 c          1 1F6       0.613200
     11 N11          0.2900     2.6030     1.2770 n          1 1F6      -0.313000
     12 C12         -2.6980     1.7990    -0.7190 c2         1 1F6       0.192000
     13 N13         -3.5300     0.7980    -1.2050 nu         1 1F6      -0.780200
     14 C14         -4.8230     1.0440    -1.8680 c3         1 1F6       0.216800
     15 C15         -5.4840    -0.2860    -2.3080 c3         1 1F6       0.135600
     16 O16         -5.5570    -1.1700    -1.1680 os         1 1F6      -0.456000
     17 C17         -6.1420    -2.4530    -1.4440 c3         1 1F6       0.145900
     18 C18          0.3200    -1.6060     1.2250 ca         1 1F6       0.040600
     19 C19          1.3790    -1.8010     2.1420 ca         1 1F6      -0.097500
     20 C20          1.7040    -3.0860     2.6100 ca         1 1F6      -0.107000
     21 C21          0.9800    -4.2010     2.1630 ca         1 1F6      -0.106000
     22 C22         -0.0650    -4.0290     1.2430 ca         1 1F6      -0.107000
     23 C23         -0.3920    -2.7440     0.7750 ca         1 1F6      -0.097500
     24 C24          0.6300     3.6750     2.2430 c3         1 1F6       0.083300
     25 C25          4.5610    -0.2610    -1.3800 c3         1 1F6       0.360300
     26 F26          4.3150    -0.3240    -2.7080 f          1 1F6      -0.114000
     27 F27          5.7700     0.3250    -1.2290 f          1 1F6      -0.114000
     28 F28          4.6920    -1.5340    -0.9410 f          1 1F6      -0.114000
     29 O29         -2.2460    -0.5800     0.7470 o          1 1F6      -0.577000
     30 O30         -1.3450     3.8870     0.3630 o          1 1F6      -0.568000
     31 H1           2.1410    -1.2220    -0.5600 ha         1 1F6       0.142000
     32 H2           2.6310     3.5910     0.4920 ha         1 1F6       0.128000
     33 H3           4.4460     2.4180    -0.6520 ha         1 1F6       0.131000
     34 H5          -2.9680     2.8130    -1.0350 h4         1 1F6       0.200000
     35 H6          -5.5030     1.5700    -1.1840 h1         1 1F6       0.065200
     36 H7          -4.6820     1.6790    -2.7530 h1         1 1F6       0.065200
     37 H8          -6.4850    -0.0780    -2.7070 h1         1 1F6       0.035200
     38 H9          -4.8830    -0.7390    -3.1070 h1         1 1F6       0.035200
     39 H10         -7.1720    -2.3430    -1.8060 h1         1 1F6       0.033700
     40 H11         -5.5620    -2.9910    -2.2050 h1         1 1F6       0.033700
     41 H12         -6.1630    -3.0670    -0.5340 h1         1 1F6       0.033700
     42 H13          1.9470    -0.9500     2.5100 ha         1 1F6       0.124000
     43 H14          2.5170    -3.2160     3.3210 ha         1 1F6       0.115000
     44 H15          1.2320    -5.1960     2.5230 ha         1 1F6       0.114000
     45 H16         -0.6190    -4.8940     0.8830 ha         1 1F6       0.115000
     46 H17         -1.1790    -2.6510     0.0330 ha         1 1F6       0.124000
     47 H18          0.8770     4.6020     1.7100 h1         1 1F6       0.046033
     48 H19         -0.2250     3.8600     2.9060 h1         1 1F6       0.046033
     49 H20          1.4880     3.3700     2.8560 h1         1 1F6       0.046033
     50 H4          -3.4670    -0.0920    -0.6910 hn         1 1F6       0.536000
@<TRIPOS>BOND
     1     1     2 ar  
     2     1     6 ar  
     3     1    25 1   
     4     2     3 ar  
     5     2    31 1   
     6     3     4 ar  
     7     3     7 1   
     8     4     5 ar  
     9     4    11 1   
    10     5     6 ar  
    11     5    32 1   
    12     6    33 1   
    13     7     8 1   
    14     7    18 1   
    15     8     9 1   
    16     8    29 2   
    17     9    10 1   
    18     9    12 2   
    19    10    11 1   
    20    10    30 2   
    21    11    24 1   
    22    12    13 1   
    23    12    34 1   
    24    13    14 1   
    25    13    50 1   
    26    14    15 1   
    27    14    35 1   
    28    14    36 1   
    29    15    16 1   
    30    15    37 1   
    31    15    38 1   
    32    16    17 1   
    33    17    39 1   
    34    17    40 1   
    35    17    41 1   
    36    18    19 ar  
    37    18    23 ar  
    38    19    20 ar  
    39    19    42 1   
    40    20    21 ar  
    41    20    43 1   
    42    21    22 ar  
    43    21    44 1   
    44    22    23 ar  
    45    22    45 1   
    46    23    46 1   
    47    24    47 1   
    48    24    48 1   
    49    24    49 1   
    50    25    26 1   
    51    25    27 1   
    52    25    28 1   
@<TRIPOS>SUBSTRUCTURE
     1 1F6         1 TEMP              0 ****  ****    0 ROOT
