@<TRIPOS>MOLECULE
1F6
   50    52     1     0     0
SMALL
bcc


@<TRIPOS>ATOM
      1 C1           2.9030     0.1440    -1.1640 ca         1 1F6      -0.202300
      2 C2           1.8580    -0.4400    -0.4690 ca         1 1F6      -0.087000
      3 C3           1.0110     0.3290     0.3240 ca         1 1F6       0.053600
      4 C4           1.1990     1.7070     0.3970 ca         1 1F6       0.085600
      5 C5           2.2420     2.2860    -0.3270 ca         1 1F6      -0.162000
      6 C6           3.0960     1.5180    -1.0930 ca         1 1F6      -0.074000
      7 N7           0.0070    -0.3150     1.0770 n          1 1F6      -0.310200
      8 C8          -1.3250     0.0210     0.9800 c          1 1F6       0.767700
      9 C9          -1.6740     1.3610     0.5230 cc         1 1F6      -0.457400
     10 C10         -0.9810     2.5680     0.9760 c          1 1F6       0.755700
     11 N11          0.3790     2.5070     1.2040 n          1 1F6      -0.380000
     12 C12         -2.9060     1.5810    -0.0720 c2         1 1F6       0.242000
     13 N13         -3.8350     0.6990    -0.3630 nu         1 1F6      -0.725000
     14 C14         -5.0460     0.9960    -1.0980 c3         1 1F6       0.216800
     15 C15         -5.1690     0.1440    -2.3430 c3         1 1F6       0.112400
     16 O16         -5.2070    -1.2040    -1.9540 os         1 1F6      -0.409600
     17 C17         -5.2270    -2.0910    -3.0440 c3         1 1F6       0.122700
     18 C18          0.3690    -1.5280     1.7370 ca         1 1F6       0.040600
     19 C19          1.1230    -1.4380     2.9000 ca         1 1F6      -0.115500
     20 C20          1.5260    -2.5940     3.5550 ca         1 1F6      -0.125000
     21 C21          1.1710    -3.8370     3.0510 ca         1 1F6      -0.124000
     22 C22          0.4170    -3.9230     1.8870 ca         1 1F6      -0.125000
     23 C23          0.0150    -2.7710     1.2260 ca         1 1F6      -0.115500
     24 C24          0.9890     3.6560     1.8570 c3         1 1F6       0.083300
     25 C25          3.7860    -0.6900    -2.0360 c3         1 1F6       0.724200
     26 F26          3.3730    -0.6770    -3.3130 f          1 1F6      -0.235300
     27 F27          5.0490    -0.2470    -2.0400 f          1 1F6      -0.235300
     28 F28          3.8180    -1.9710    -1.6550 f          1 1F6      -0.235300
     29 O29         -2.1810    -0.8000     1.2890 o          1 1F6      -0.652500
     30 O30         -1.5820     3.6090     1.2000 o          1 1F6      -0.643500
     31 H1           1.6960    -1.5080    -0.5180 ha         1 1F6       0.160000
     32 H2           2.3970     3.3550    -0.2850 ha         1 1F6       0.146000
     33 H3           3.9010     2.0040    -1.6270 ha         1 1F6       0.149000
     34 H5          -3.1410     2.5970    -0.3690 h4         1 1F6       0.150000
     35 H6          -5.9110     0.8350    -0.4490 h1         1 1F6       0.065200
     36 H7          -5.0400     2.0470    -1.3820 h1         1 1F6       0.065200
     37 H8          -6.0830     0.4340    -2.8790 h1         1 1F6       0.035200
     38 H9          -4.3210     0.3380    -3.0140 h1         1 1F6       0.035200
     39 H10         -6.1120    -1.9480    -3.6740 h1         1 1F6       0.033700
     40 H11         -4.3400    -1.9800    -3.6780 h1         1 1F6       0.033700
     41 H12         -5.2450    -3.1060    -2.6500 h1         1 1F6       0.033700
     42 H13          1.3900    -0.4640     3.2890 ha         1 1F6       0.142000
     43 H14          2.1140    -2.5190     4.4600 ha         1 1F6       0.133000
     44 H15          1.4810    -4.7390     3.5620 ha         1 1F6       0.132000
     45 H16          0.1450    -4.8910     1.4870 ha         1 1F6       0.133000
     46 H17         -0.5620    -2.8410     0.3140 ha         1 1F6       0.142000
     47 H18          1.0630     4.5320     1.2100 h1         1 1F6       0.046033
     48 H19          0.4070     3.9270     2.7330 h1         1 1F6       0.046033
     49 H20          1.9870     3.3800     2.1880 h1         1 1F6       0.046033
     50 H4          -3.7070    -0.2510    -0.0420 hn         1 1F6       0.480800
@<TRIPOS>BOND
     1     1     2 ar  
     2     1     6 ar  
     3     1    25 1   
     4     2     3 ar  
     5     2    31 1   
     6     3     4 ar  
     7     3     7 1   
     8     4     5 ar  
     9     4    11 1   
    10     5     6 ar  
    11     5    32 1   
    12     6    33 1   
    13     7     8 1   
    14     7    18 1   
    15     8     9 1   
    16     8    29 2   
    17     9    10 1   
    18     9    12 2   
    19    10    11 1   
    20    10    30 2   
    21    11    24 1   
    22    12    13 1   
    23    12    34 1   
    24    13    14 1   
    25    13    50 1   
    26    14    15 1   
    27    14    35 1   
    28    14    36 1   
    29    15    16 1   
    30    15    37 1   
    31    15    38 1   
    32    16    17 1   
    33    17    39 1   
    34    17    40 1   
    35    17    41 1   
    36    18    19 ar  
    37    18    23 ar  
    38    19    20 ar  
    39    19    42 1   
    40    20    21 ar  
    41    20    43 1   
    42    21    22 ar  
    43    21    44 1   
    44    22    23 ar  
    45    22    45 1   
    46    23    46 1   
    47    24    47 1   
    48    24    48 1   
    49    24    49 1   
    50    25    26 1   
    51    25    27 1   
    52    25    28 1   
@<TRIPOS>SUBSTRUCTURE
     1 1F6         1 TEMP              0 ****  ****    0 ROOT
