@<TRIPOS>MOLECULE
1F8
   29    30     1     0     0
SMALL
No Charge or Current Charge


@<TRIPOS>ATOM
      1 SD          -5.3040    -1.5070     0.1240 sh         1 1F8      -0.441800
      2 C15         -3.4560    -1.3800     0.2070 c3         1 1F8       0.058600
      3 C16         -2.9270     0.0460    -0.0360 c3         1 1F8       0.107000
      4 N17         -1.4640     0.1160     0.0350 ns         1 1F8      -0.507900
      5 C18         -0.7330     1.2610    -0.1460 c          1 1F8       0.649300
      6 O19         -1.2790     2.3280    -0.3860 o          1 1F8      -0.602100
      7 C20          0.7370     1.0870    -0.0260 cc         1 1F8      -0.233400
      8 C21          1.5560    -0.1010     0.2530 ca         1 1F8      -0.089800
      9 C22          2.8730     0.3120     0.2490 ca         1 1F8       0.055100
     10 O23          2.9360     1.6430    -0.0070 os         1 1F8      -0.173200
     11 C24          1.6620     2.1170    -0.1730 cd         1 1F8       0.120900
     12 C25          3.9480    -0.5530     0.4800 ca         1 1F8      -0.095000
     13 C26          3.6520    -1.9090     0.7270 ca         1 1F8      -0.095000
     14 C27          2.3080    -2.3530     0.7350 ca         1 1F8      -0.122000
     15 C28          1.2440    -1.4540     0.4980 ca         1 1F8      -0.076000
     16 C29          1.4830     3.5830    -0.4690 c3         1 1F8      -0.046900
     17 HSD         -5.3750    -2.8390     0.3760 hs         1 1F8       0.213800
     18 H15         -3.1320    -1.7230     1.1990 h1         1 1F8       0.062200
     19 H15A        -3.0300    -2.0580    -0.5440 h1         1 1F8       0.062200
     20 H16         -3.2510     0.3890    -1.0280 h1         1 1F8       0.070700
     21 H16A        -3.3530     0.7240     0.7150 h1         1 1F8       0.070700
     22 HN17        -0.9400    -0.7230     0.2300 hn         1 1F8       0.315500
     23 H25          4.9720    -0.1900     0.4690 ha         1 1F8       0.133000
     24 H26          4.4580    -2.6150     0.9110 ha         1 1F8       0.119000
     25 H27          2.0920    -3.4020     0.9270 ha         1 1F8       0.116000
     26 H28          0.2270    -1.8300     0.5120 ha         1 1F8       0.118000
     27 H29          2.4490     4.1000    -0.5140 hc         1 1F8       0.070700
     28 H29A         0.9810     3.7300    -1.4320 hc         1 1F8       0.070700
     29 H29B         0.8800     4.0680     0.3060 hc         1 1F8       0.070700
@<TRIPOS>BOND
     1     1     2 1   
     2     1    17 1   
     3     2     3 1   
     4     2    18 1   
     5     2    19 1   
     6     3     4 1   
     7     3    20 1   
     8     3    21 1   
     9     4     5 1   
    10     4    22 1   
    11     5     6 2   
    12     5     7 1   
    13     7     8 1   
    14     7    11 2   
    15     8     9 ar  
    16     8    15 ar  
    17     9    10 1   
    18     9    12 ar  
    19    10    11 1   
    20    11    16 1   
    21    12    13 ar  
    22    12    23 1   
    23    13    14 ar  
    24    13    24 1   
    25    14    15 ar  
    26    14    25 1   
    27    15    26 1   
    28    16    27 1   
    29    16    28 1   
    30    16    29 1   
@<TRIPOS>SUBSTRUCTURE
     1 1F8         1 TEMP              0 ****  ****    0 ROOT
