@<TRIPOS>MOLECULE
1F8
   29    30     1     0     0
SMALL
bcc


@<TRIPOS>ATOM
      1 SD          -5.1460    -1.4000     0.2080 sh         1 1F8      -0.393900
      2 C15         -3.3250    -1.3180     0.2310 c3         1 1F8       0.010700
      3 C16         -2.9100     0.1440     0.3180 c3         1 1F8       0.107000
      4 N17         -1.4710     0.2520     0.3690 ns         1 1F8      -0.574900
      5 C18         -0.7470     1.1060    -0.3810 c          1 1F8       0.716300
      6 O19         -1.2430     1.8920    -1.1770 o          1 1F8      -0.602100
      7 C20          0.7120     1.0090    -0.1700 cc         1 1F8      -0.233400
      8 C21          1.4910    -0.1660     0.1450 ca         1 1F8      -0.089800
      9 C22          2.8070     0.2850     0.2380 ca         1 1F8       0.055100
     10 O23          2.8550     1.6190     0.0100 os         1 1F8      -0.173200
     11 C24          1.5940     2.0420    -0.2440 cd         1 1F8       0.120900
     12 C25          3.8870    -0.5340     0.5080 ca         1 1F8      -0.113000
     13 C26          3.6080    -1.8800     0.6860 ca         1 1F8      -0.113000
     14 C27          2.3010    -2.3690     0.5850 ca         1 1F8      -0.140000
     15 C28          1.2350    -1.5280     0.3120 ca         1 1F8      -0.094000
     16 C29          1.4380     3.4880    -0.5030 c3         1 1F8      -0.046900
     17 HSD         -5.2530    -2.7320     0.1810 hs         1 1F8       0.213800
     18 H15         -2.9510    -1.8730     1.0930 h1         1 1F8       0.062200
     19 H15A        -2.9200    -1.7670    -0.6750 h1         1 1F8       0.062200
     20 H16         -3.2650     0.6870    -0.5560 h1         1 1F8       0.070700
     21 H16A        -3.3570     0.6120     1.2000 h1         1 1F8       0.070700
     22 HN17        -1.0050    -0.2280     1.1240 hn         1 1F8       0.315500
     23 H25          4.8950    -0.1470     0.5720 ha         1 1F8       0.151000
     24 H26          4.4180    -2.5650     0.8990 ha         1 1F8       0.137000
     25 H27          2.1220    -3.4280     0.7170 ha         1 1F8       0.134000
     26 H28          0.2350    -1.9330     0.2200 ha         1 1F8       0.136000
     27 H29          1.8150     4.0740     0.3360 hc         1 1F8       0.070700
     28 H29A         2.0000     3.7860    -1.3910 hc         1 1F8       0.070700
     29 H29B         0.3950     3.7390    -0.6630 hc         1 1F8       0.070700
@<TRIPOS>BOND
     1     1     2 1   
     2     1    17 1   
     3     2     3 1   
     4     2    18 1   
     5     2    19 1   
     6     3     4 1   
     7     3    20 1   
     8     3    21 1   
     9     4     5 1   
    10     4    22 1   
    11     5     6 2   
    12     5     7 1   
    13     7     8 1   
    14     7    11 2   
    15     8     9 ar  
    16     8    15 ar  
    17     9    10 1   
    18     9    12 ar  
    19    10    11 1   
    20    11    16 1   
    21    12    13 ar  
    22    12    23 1   
    23    13    14 ar  
    24    13    24 1   
    25    14    15 ar  
    26    14    25 1   
    27    15    26 1   
    28    16    27 1   
    29    16    28 1   
    30    16    29 1   
@<TRIPOS>SUBSTRUCTURE
     1 1F8         1 TEMP              0 ****  ****    0 ROOT
