@<TRIPOS>MOLECULE
1FA
   68    72     1     0     0
SMALL
No Charge or Current Charge


@<TRIPOS>ATOM
      1 F25         -8.3960    -2.4320     1.5730 f          1 1FA      -0.115333
      2 C24         -7.9110    -2.1540     0.3420 c3         1 1FA       0.356300
      3 F27         -7.9660    -3.3020    -0.3730 f          1 1FA      -0.115333
      4 F26         -8.7790    -1.2960    -0.2410 f          1 1FA      -0.115333
      5 C21         -6.4890    -1.5840     0.4210 ca         1 1FA      -0.198300
      6 C22         -5.3680    -2.4420     0.3930 ca         1 1FA      -0.064500
      7 C23         -4.0660    -1.9180     0.4750 ca         1 1FA      -0.095000
      8 C20         -6.2810    -0.1920     0.5470 ca         1 1FA      -0.064500
      9 C19         -4.9780     0.3290     0.6290 ca         1 1FA      -0.095000
     10 C18         -3.8670    -0.5320     0.5920 ca         1 1FA       0.066000
     11 C17         -2.5380     0.0010     0.6760 cg         1 1FA      -0.107000
     12 C16         -1.4010     0.4410     0.7470 ch         1 1FA      -0.177000
     13 C3          -0.0660     0.9310     0.8320 ca         1 1FA       0.473000
     14 C4           0.9720     0.0920     1.2730 ca         1 1FA      -0.133000
     15 N2           0.1280     2.2160     0.4660 nb         1 1FA      -0.654000
     16 C1           1.3870     2.7000     0.5340 ca         1 1FA       0.473000
     17 C7           1.5610     4.0660     0.1370 cg         1 1FA      -0.200000
     18 C8           1.7250     5.2230    -0.2000 c1         1 1FA      -0.118100
     19 C9           1.9720     6.6110    -0.6210 c3         1 1FA       0.255900
     20 N10          3.3940     7.0240    -0.5060 n3         1 1FA      -0.708600
     21 C11          4.3180     6.2780    -1.4250 c6         1 1FA       0.124800
     22 C12          5.7950     6.7460    -1.2630 c6         1 1FA       0.153100
     23 O13          5.8940     8.1780    -1.4500 os         1 1FA      -0.453000
     24 C14          5.0690     8.9200    -0.5190 c6         1 1FA       0.153100
     25 C15          3.5760     8.5000    -0.6670 c6         1 1FA       0.124800
     26 C6           2.4860     1.9330     0.9600 ca         1 1FA      -0.137000
     27 C5           2.2840     0.5960     1.3360 ca         1 1FA      -0.067000
     28 S28          3.6690    -0.4150     1.8600 ss         1 1FA       0.071000
     29 C29          3.1480    -2.0140     1.2410 ca         1 1FA      -0.224000
     30 C30          2.8060    -3.0330     2.1510 ca         1 1FA      -0.019000
     31 C31          2.3850    -4.2920     1.6810 ca         1 1FA      -0.234000
     32 C34          3.0650    -2.2770    -0.1390 ca         1 1FA      -0.009300
     33 C35          3.4070    -1.3440    -1.2760 c5         1 1FA      -0.038100
     34 C36          2.6770    -2.0580    -2.4740 c5         1 1FA      -0.082400
     35 C37          2.6510    -3.5880    -2.1050 c5         1 1FA      -0.016100
     36 C33          2.6520    -3.5130    -0.5980 ca         1 1FA      -0.154300
     37 C32          2.3060    -4.5440     0.2920 ca         1 1FA       0.220100
     38 O38          1.9060    -5.7610    -0.2240 os         1 1FA      -0.280100
     39 C39          1.5320    -6.8730     0.6240 c3         1 1FA      -0.005400
     40 C40          1.1180    -8.1410    -0.1770 c          1 1FA       0.729000
     41 O42          1.1370    -8.1150    -1.4030 o          1 1FA      -0.706500
     42 O41          0.7860    -9.1300     0.4630 o          1 1FA      -0.706500
     43 H22         -5.5000    -3.5200     0.3110 ha         1 1FA       0.131000
     44 H23         -3.2120    -2.5910     0.4510 ha         1 1FA       0.134500
     45 H20         -7.1270     0.4920     0.5850 ha         1 1FA       0.131000
     46 H19         -4.8320     1.4030     0.7240 ha         1 1FA       0.134500
     47 H4           0.7490    -0.9330     1.5560 ha         1 1FA       0.156000
     48 H91          1.6220     6.7300    -1.6560 h1         1 1FA       0.050200
     49 H92          1.3450     7.2590     0.0060 h1         1 1FA       0.050200
     50 H111         4.2750     5.1970    -1.2280 h1         1 1FA       0.043450
     51 H112         4.0160     6.4260    -2.4720 h1         1 1FA       0.043450
     52 H121         6.1630     6.4840    -0.2600 h1         1 1FA       0.051200
     53 H122         6.4310     6.2400    -2.0030 h1         1 1FA       0.051200
     54 H141         5.4140     8.7260     0.5070 h1         1 1FA       0.051200
     55 H142         5.1780     9.9950    -0.7190 h1         1 1FA       0.051200
     56 H151         3.2170     8.8240    -1.6560 h1         1 1FA       0.043450
     57 H152         2.9830     9.0420     0.0840 h1         1 1FA       0.043450
     58 H6           3.4790     2.3730     0.9890 ha         1 1FA       0.134000
     59 H30          2.8630    -2.8470     3.2220 ha         1 1FA       0.112000
     60 H31          2.1270    -5.0580     2.4060 ha         1 1FA       0.130000
     61 H351         3.0430    -0.3210    -1.1350 hc         1 1FA       0.051700
     62 H352         4.4900    -1.2920    -1.4350 hc         1 1FA       0.051700
     63 H361         1.6520    -1.6790    -2.5620 hc         1 1FA       0.038200
     64 H362         3.1660    -1.8680    -3.4350 hc         1 1FA       0.038200
     65 H371         1.7690    -4.0960    -2.5130 hc         1 1FA       0.066200
     66 H372         3.5380    -4.1100    -2.4800 hc         1 1FA       0.066200
     67 H391         2.3710    -7.1510     1.2740 h1         1 1FA       0.022200
     68 H392         0.6830    -6.5920     1.2610 h1         1 1FA       0.022200
@<TRIPOS>BOND
     1     1     2 1   
     2     2     3 1   
     3     2     4 1   
     4     2     5 1   
     5     5     6 ar  
     6     5     8 ar  
     7     6     7 ar  
     8     6    43 1   
     9     7    10 ar  
    10     7    44 1   
    11     8     9 ar  
    12     8    45 1   
    13     9    10 ar  
    14     9    46 1   
    15    10    11 1   
    16    11    12 3   
    17    12    13 1   
    18    13    14 ar  
    19    13    15 ar  
    20    14    27 ar  
    21    14    47 1   
    22    15    16 ar  
    23    16    17 1   
    24    16    26 ar  
    25    17    18 3   
    26    18    19 1   
    27    19    20 1   
    28    19    48 1   
    29    19    49 1   
    30    20    21 1   
    31    20    25 1   
    32    21    22 1   
    33    21    50 1   
    34    21    51 1   
    35    22    23 1   
    36    22    52 1   
    37    22    53 1   
    38    23    24 1   
    39    24    25 1   
    40    24    54 1   
    41    24    55 1   
    42    25    56 1   
    43    25    57 1   
    44    26    27 ar  
    45    26    58 1   
    46    27    28 1   
    47    28    29 1   
    48    29    30 ar  
    49    29    32 ar  
    50    30    31 ar  
    51    30    59 1   
    52    31    37 ar  
    53    31    60 1   
    54    32    33 1   
    55    32    36 ar  
    56    33    34 1   
    57    33    61 1   
    58    33    62 1   
    59    34    35 1   
    60    34    63 1   
    61    34    64 1   
    62    35    36 1   
    63    35    65 1   
    64    35    66 1   
    65    36    37 ar  
    66    37    38 1   
    67    38    39 1   
    68    39    40 1   
    69    39    67 1   
    70    39    68 1   
    71    40    41 1   
    72    40    42 1   
@<TRIPOS>SUBSTRUCTURE
     1 1FA         1 TEMP              0 ****  ****    0 ROOT
