@<TRIPOS>MOLECULE
1FA
   68    72     1     0     0
SMALL
abcg2


@<TRIPOS>ATOM
      1 F25         -7.9580    -2.3440     1.5930 f          1 1FA      -0.115333
      2 C24         -7.6400    -1.9850     0.3400 c3         1 1FA       0.356300
      3 F27         -7.7850    -3.0790    -0.4190 f          1 1FA      -0.115333
      4 F26         -8.5620    -1.1040    -0.0580 f          1 1FA      -0.115333
      5 C21         -6.2500    -1.4340     0.2630 ca         1 1FA      -0.198300
      6 C22         -5.1700    -2.3110     0.3000 ca         1 1FA      -0.064500
      7 C23         -3.8790    -1.8200     0.2660 ca         1 1FA      -0.095000
      8 C20         -6.0320    -0.0630     0.1970 ca         1 1FA      -0.064500
      9 C19         -4.7400     0.4310     0.1620 ca         1 1FA      -0.095000
     10 C18         -3.6510    -0.4430     0.1960 ca         1 1FA       0.066000
     11 C17         -2.3240     0.0640     0.1550 cg         1 1FA      -0.107000
     12 C16         -1.1980     0.4960     0.1180 ch         1 1FA      -0.177000
     13 C3           0.1400     0.9910     0.0700 ca         1 1FA       0.473000
     14 C4           1.2010     0.0900     0.1260 ca         1 1FA      -0.133000
     15 N2           0.2900     2.3090    -0.0300 nb         1 1FA      -0.654000
     16 C1           1.5350     2.7790    -0.0840 ca         1 1FA       0.473000
     17 C7           1.6890     4.1970    -0.1850 cg         1 1FA      -0.200000
     18 C8           1.8390     5.3880    -0.2650 c1         1 1FA      -0.118100
     19 C9           2.0180     6.8320    -0.3680 c3         1 1FA       0.255900
     20 N10          3.3550     7.2450     0.0110 n3         1 1FA      -0.708600
     21 C11          4.3670     6.7540    -0.9080 c6         1 1FA       0.124800
     22 C12          5.7390     7.2130    -0.4550 c6         1 1FA       0.153100
     23 O13          5.8090     8.6180    -0.3490 os         1 1FA      -0.453000
     24 C14          4.8310     9.1010     0.5450 c6         1 1FA       0.153100
     25 C15          3.4350     8.6930     0.1160 c6         1 1FA       0.124800
     26 C6           2.6650     1.9670    -0.0460 ca         1 1FA      -0.137000
     27 C5           2.4950     0.5900     0.0640 ca         1 1FA      -0.067000
     28 S28          3.9380    -0.4110     0.1130 ss         1 1FA       0.071000
     29 C29          3.2830    -2.0440     0.2470 ca         1 1FA      -0.224000
     30 C30          3.1920    -2.6570     1.4910 ca         1 1FA      -0.019000
     31 C31          2.6990    -3.9490     1.6190 ca         1 1FA      -0.234000
     32 C34          2.8650    -2.7480    -0.8810 ca         1 1FA      -0.009300
     33 C35          2.8780    -2.3240    -2.3220 c5         1 1FA      -0.038100
     34 C36          1.9430    -3.3430    -2.9940 c5         1 1FA      -0.082400
     35 C37          1.9800    -4.5930    -2.0990 c5         1 1FA      -0.016100
     36 C33          2.3620    -4.0320    -0.7600 ca         1 1FA      -0.154300
     37 C32          2.2790    -4.6540     0.4870 ca         1 1FA       0.220100
     38 O38          1.7910    -5.8980     0.4970 os         1 1FA      -0.280100
     39 C39          1.6450    -6.5720     1.7350 c3         1 1FA      -0.005400
     40 C40          1.0250    -7.9640     1.5220 c          1 1FA       0.729000
     41 O42          0.7510    -8.3160     0.3660 o          1 1FA      -0.706500
     42 O41          0.8640    -8.6010     2.5800 o          1 1FA      -0.706500
     43 H22         -5.3220    -3.3810     0.3520 ha         1 1FA       0.131000
     44 H23         -3.0420    -2.5050     0.2910 ha         1 1FA       0.134500
     45 H20         -6.8580     0.6340     0.1700 ha         1 1FA       0.131000
     46 H19         -4.5740     1.4980     0.1080 ha         1 1FA       0.134500
     47 H4           1.0060    -0.9700     0.2180 ha         1 1FA       0.156000
     48 H91          1.7550     7.1470    -1.3930 h1         1 1FA       0.050200
     49 H92          1.2980     7.3190     0.2950 h1         1 1FA       0.050200
     50 H111         4.3530     5.6620    -0.9230 h1         1 1FA       0.043450
     51 H112         4.1790     7.0970    -1.9400 h1         1 1FA       0.043450
     52 H121         5.9780     6.7440     0.5100 h1         1 1FA       0.051200
     53 H122         6.4940     6.9000    -1.1780 h1         1 1FA       0.051200
     54 H141         5.0220     8.7280     1.5610 h1         1 1FA       0.051200
     55 H142         4.9130    10.1880     0.5650 h1         1 1FA       0.051200
     56 H151         3.1790     9.1870    -0.8360 h1         1 1FA       0.043450
     57 H152         2.7190     9.0420     0.8640 h1         1 1FA       0.043450
     58 H6           3.6510     2.4100    -0.1010 ha         1 1FA       0.134000
     59 H30          3.5040    -2.1230     2.3790 ha         1 1FA       0.112000
     60 H31          2.6440    -4.3860     2.6060 ha         1 1FA       0.130000
     61 H351         2.5540    -1.2920    -2.4700 hc         1 1FA       0.051700
     62 H352         3.8980    -2.3910    -2.7140 hc         1 1FA       0.051700
     63 H361         0.9280    -2.9410    -3.0110 hc         1 1FA       0.038200
     64 H362         2.2270    -3.5540    -4.0240 hc         1 1FA       0.038200
     65 H371         1.0270    -5.1240    -2.0840 hc         1 1FA       0.066200
     66 H372         2.7320    -5.3110    -2.4410 hc         1 1FA       0.066200
     67 H391         2.6170    -6.6830     2.2290 h1         1 1FA       0.022200
     68 H392         1.0030    -5.9960     2.4130 h1         1 1FA       0.022200
@<TRIPOS>BOND
     1     1     2 1   
     2     2     3 1   
     3     2     4 1   
     4     2     5 1   
     5     5     6 ar  
     6     5     8 ar  
     7     6     7 ar  
     8     6    43 1   
     9     7    10 ar  
    10     7    44 1   
    11     8     9 ar  
    12     8    45 1   
    13     9    10 ar  
    14     9    46 1   
    15    10    11 1   
    16    11    12 3   
    17    12    13 1   
    18    13    14 ar  
    19    13    15 ar  
    20    14    27 ar  
    21    14    47 1   
    22    15    16 ar  
    23    16    17 1   
    24    16    26 ar  
    25    17    18 3   
    26    18    19 1   
    27    19    20 1   
    28    19    48 1   
    29    19    49 1   
    30    20    21 1   
    31    20    25 1   
    32    21    22 1   
    33    21    50 1   
    34    21    51 1   
    35    22    23 1   
    36    22    52 1   
    37    22    53 1   
    38    23    24 1   
    39    24    25 1   
    40    24    54 1   
    41    24    55 1   
    42    25    56 1   
    43    25    57 1   
    44    26    27 ar  
    45    26    58 1   
    46    27    28 1   
    47    28    29 1   
    48    29    30 ar  
    49    29    32 ar  
    50    30    31 ar  
    51    30    59 1   
    52    31    37 ar  
    53    31    60 1   
    54    32    33 1   
    55    32    36 ar  
    56    33    34 1   
    57    33    61 1   
    58    33    62 1   
    59    34    35 1   
    60    34    63 1   
    61    34    64 1   
    62    35    36 1   
    63    35    65 1   
    64    35    66 1   
    65    36    37 ar  
    66    37    38 1   
    67    38    39 1   
    68    39    40 1   
    69    39    67 1   
    70    39    68 1   
    71    40    41 1   
    72    40    42 1   
@<TRIPOS>SUBSTRUCTURE
     1 1FA         1 TEMP              0 ****  ****    0 ROOT
