@<TRIPOS>MOLECULE
1FB
   38    40     1     0     0
SMALL
bcc


@<TRIPOS>ATOM
      1 CAA          3.7260     2.3960     1.1680 c3         1 1FB      -0.101100
      2 CAV          2.9030     2.2690    -0.1140 c3         1 1FB       0.109700
      3 CAB          1.9060     3.4200    -0.1930 c3         1 1FB      -0.101100
      4 CAC          3.8090     2.2960    -1.3450 c3         1 1FB      -0.101100
      5 NAU          2.1660     0.9890    -0.0880 na         1 1FB       0.009200
      6 NAM          0.8140     0.9620    -0.1050 nc         1 1FB      -0.595100
      7 C4           2.6680    -0.2600    -0.0260 ca         1 1FB       0.512800
      8 N3           3.9540    -0.6310     0.0080 nb         1 1FB      -0.768000
      9 C2           4.1000    -1.9390     0.0630 ca         1 1FB       0.729900
     10 N1           3.1640    -2.8870     0.0870 nb         1 1FB      -0.842000
     11 C6           1.8810    -2.5180     0.0540 ca         1 1FB       0.802200
     12 NAD          0.9450    -3.4650     0.0760 nv         1 1FB      -0.954500
     13 C5           1.5830    -1.1410    -0.0030 ca         1 1FB      -0.537500
     14 CAR          0.4590    -0.2870    -0.0540 cd         1 1FB       0.611200
     15 OAN         -0.7950    -0.7570    -0.0760 os         1 1FB      -0.326700
     16 CAQ         -1.9400    -0.0240     0.0390 ca         1 1FB       0.148100
     17 CAJ         -3.0950    -0.7660    -0.1950 ca         1 1FB      -0.151000
     18 CAO         -4.3250    -0.1470    -0.0800 ca         1 1FB       0.053400
     19 CL1         -5.7590    -1.0750    -0.3710 cl         1 1FB      -0.106400
     20 CAG         -4.4380     1.1930     0.2610 ca         1 1FB      -0.145000
     21 CAF         -3.2730     1.9080     0.4870 ca         1 1FB      -0.095000
     22 CAH         -2.0180     1.3210     0.3790 ca         1 1FB      -0.170000
     23 H1           4.4760     1.6100     1.2500 hc         1 1FB       0.050367
     24 H2           4.2450     3.3550     1.1730 hc         1 1FB       0.050367
     25 H3           3.0840     2.3580     2.0500 hc         1 1FB       0.050367
     26 H4           1.2400     3.4470     0.6680 hc         1 1FB       0.050367
     27 H5           2.4710     4.3530    -0.2130 hc         1 1FB       0.050367
     28 H6           1.2990     3.3760    -1.0960 hc         1 1FB       0.050367
     29 H7           3.2250     2.2060    -2.2620 hc         1 1FB       0.050367
     30 H8           4.3450     3.2450    -1.3810 hc         1 1FB       0.050367
     31 H9           4.5460     1.4940    -1.3210 hc         1 1FB       0.050367
     32 H10          5.1230    -2.3010     0.0940 h5         1 1FB       0.045100
     33 H11          1.2150    -4.4330     0.1150 hn         1 1FB       0.451800
     34 H12         -0.0350    -3.2470     0.0590 hn         1 1FB       0.451800
     35 H13         -3.0220    -1.8140    -0.4570 ha         1 1FB       0.156000
     36 H14         -5.4060     1.6650     0.3500 ha         1 1FB       0.151000
     37 H15         -3.3390     2.9550     0.7520 ha         1 1FB       0.138000
     38 H16         -1.1330     1.9110     0.5520 ha         1 1FB       0.171000
@<TRIPOS>BOND
     1     1     2 1   
     2     1    23 1   
     3     1    24 1   
     4     1    25 1   
     5     2     3 1   
     6     2     4 1   
     7     2     5 1   
     8     3    26 1   
     9     3    27 1   
    10     3    28 1   
    11     4    29 1   
    12     4    30 1   
    13     4    31 1   
    14     5     6 1   
    15     5     7 1   
    16     6    14 2   
    17     7     8 ar  
    18     7    13 ar  
    19     8     9 ar  
    20     9    10 ar  
    21     9    32 1   
    22    10    11 ar  
    23    11    12 1   
    24    11    13 ar  
    25    12    33 1   
    26    12    34 1   
    27    13    14 1   
    28    14    15 1   
    29    15    16 1   
    30    16    17 ar  
    31    16    22 ar  
    32    17    18 ar  
    33    17    35 1   
    34    18    19 1   
    35    18    20 ar  
    36    20    21 ar  
    37    20    36 1   
    38    21    22 ar  
    39    21    37 1   
    40    22    38 1   
@<TRIPOS>SUBSTRUCTURE
     1 1FB         1 TEMP              0 ****  ****    0 ROOT
