@<TRIPOS>MOLECULE
1FB
   38    40     1     0     0
SMALL
No Charge or Current Charge


@<TRIPOS>ATOM
      1 CAA          3.6120     2.5720     0.9750 c3         1 1FB      -0.101100
      2 CAV          2.8300     2.3030    -0.3390 c3         1 1FB       0.139000
      3 CAB          1.8620     3.5000    -0.5700 c3         1 1FB      -0.101100
      4 CAC          3.8170     2.2540    -1.5360 c3         1 1FB      -0.101100
      5 NAU          2.0770     1.0090    -0.2360 na         1 1FB      -0.020100
      6 NAM          0.6730     0.9150    -0.2950 nc         1 1FB      -0.595100
      7 C4           2.6690    -0.2470    -0.0300 ca         1 1FB       0.184500
      8 N3           3.9470    -0.6550     0.1170 nb         1 1FB      -0.242000
      9 C2           4.1260    -1.9850     0.3120 ca         1 1FB       0.203900
     10 N1           3.1570    -2.9320     0.3750 nb         1 1FB      -0.316000
     11 C6           1.9000    -2.4950     0.2260 ca         1 1FB       0.473900
     12 NAD          0.9290    -3.4280     0.2810 nv         1 1FB      -1.064900
     13 C5           1.6480    -1.1510     0.0240 ca         1 1FB      -0.406900
     14 CAR          0.4590    -0.3930    -0.1610 cd         1 1FB       0.611200
     15 OAN         -0.7720    -0.9730    -0.0220 os         1 1FB      -0.326700
     16 CAQ         -1.9220    -0.2380     0.1340 ca         1 1FB       0.148100
     17 CAJ         -2.9850    -0.4370    -0.7590 ca         1 1FB      -0.133000
     18 CAO         -4.1770     0.2870    -0.6000 ca         1 1FB       0.145000
     19 Cl1         -5.5070     0.0460    -1.7250 cl         1 1FB      -0.198000
     20 CAG         -4.3120     1.2030     0.4570 ca         1 1FB      -0.127000
     21 CAF         -3.2530     1.3930     1.3630 ca         1 1FB      -0.077000
     22 CAH         -2.0580     0.6670     1.2030 ca         1 1FB      -0.152000
     23 H1           4.3780     1.8090     1.1530 hc         1 1FB       0.050367
     24 H2           4.1180     3.5440     0.9370 hc         1 1FB       0.050367
     25 H3           2.9320     2.5770     1.8360 hc         1 1FB       0.050367
     26 H4           1.1520     3.6000     0.2600 hc         1 1FB       0.050367
     27 H5           2.4150     4.4440    -0.6490 hc         1 1FB       0.050367
     28 H6           1.2900     3.3710    -1.4970 hc         1 1FB       0.050367
     29 H7           3.2840     2.0300    -2.4680 hc         1 1FB       0.050367
     30 H8           4.3280     3.2160    -1.6610 hc         1 1FB       0.050367
     31 H9           4.5880     1.4890    -1.3940 hc         1 1FB       0.050367
     32 H10          5.1520    -2.3270     0.4320 h5         1 1FB       0.045100
     33 H11          1.1640    -4.3370     0.6700 hn         1 1FB       0.507000
     34 H12         -0.0310    -3.1140     0.3960 hn         1 1FB       0.507000
     35 H13         -2.8850    -1.1480    -1.5740 ha         1 1FB       0.138000
     36 H14         -5.2370     1.7610     0.5770 ha         1 1FB       0.133000
     37 H15         -3.3580     2.0980     2.1860 ha         1 1FB       0.120000
     38 H16         -1.2410     0.8080     1.9060 ha         1 1FB       0.153000
@<TRIPOS>BOND
     1     1     2 1   
     2     1    23 1   
     3     1    24 1   
     4     1    25 1   
     5     2     3 1   
     6     2     4 1   
     7     2     5 1   
     8     3    26 1   
     9     3    27 1   
    10     3    28 1   
    11     4    29 1   
    12     4    30 1   
    13     4    31 1   
    14     5     6 1   
    15     5     7 1   
    16     6    14 2   
    17     7     8 ar  
    18     7    13 ar  
    19     8     9 ar  
    20     9    10 ar  
    21     9    32 1   
    22    10    11 ar  
    23    11    12 1   
    24    11    13 ar  
    25    12    33 1   
    26    12    34 1   
    27    13    14 1   
    28    14    15 1   
    29    15    16 1   
    30    16    17 ar  
    31    16    22 ar  
    32    17    18 ar  
    33    17    35 1   
    34    18    19 1   
    35    18    20 ar  
    36    20    21 ar  
    37    20    36 1   
    38    21    22 ar  
    39    21    37 1   
    40    22    38 1   
@<TRIPOS>SUBSTRUCTURE
     1 1FB         1 TEMP              0 ****  ****    0 ROOT
