@<TRIPOS>MOLECULE
1FD
   21    21     1     0     0
SMALL
bcc


@<TRIPOS>ATOM
      1 F3          -2.4210     1.0930     0.4590 f          1 1FD      -0.231967
      2 C1          -2.4500    -0.2360     0.3340 c3         1 1FD       0.854700
      3 F1          -2.1920    -0.7400     1.5430 f          1 1FD      -0.231967
      4 F2          -3.6750    -0.5960    -0.0120 f          1 1FD      -0.231967
      5 O           -1.6110    -0.6860    -0.6050 os         1 1FD      -0.379900
      6 C2          -0.2600    -0.3740    -0.4750 ca         1 1FD       0.088100
      7 C7           0.2340     0.7550    -1.1030 ca         1 1FD      -0.120000
      8 C6           1.5900     1.0300    -1.0160 ca         1 1FD      -0.111000
      9 C5           2.4550     0.1920    -0.3180 ca         1 1FD      -0.075300
     10 C8           3.9330     0.4900    -0.2760 c3         1 1FD       0.196100
     11 N            4.5520     0.0250     0.9510 n8         1 1FD      -0.891800
     12 C4           1.9270    -0.9370     0.3030 ca         1 1FD      -0.111000
     13 C3           0.5730    -1.2270     0.2280 ca         1 1FD      -0.120000
     14 H1          -0.4240     1.4100    -1.6600 ha         1 1FD       0.151500
     15 H2           1.9770     1.9200    -1.4980 ha         1 1FD       0.146500
     16 H3           4.4100    -0.0340    -1.1100 h1         1 1FD       0.038700
     17 H4           4.0780     1.5610    -0.4760 h1         1 1FD       0.038700
     18 H5           5.5550     0.1310     0.8830 hn         1 1FD       0.345300
     19 H6           4.2570     0.6080     1.7240 hn         1 1FD       0.345300
     20 H8           2.5830    -1.5940     0.8580 ha         1 1FD       0.146500
     21 H9           0.1780    -2.1170     0.7000 ha         1 1FD       0.151500
@<TRIPOS>BOND
     1     1     2 1   
     2     2     3 1   
     3     2     4 1   
     4     2     5 1   
     5     5     6 1   
     6     6     7 ar  
     7     6    13 ar  
     8     7     8 ar  
     9     7    14 1   
    10     8     9 ar  
    11     8    15 1   
    12     9    10 1   
    13     9    12 ar  
    14    10    11 1   
    15    10    16 1   
    16    10    17 1   
    17    11    18 1   
    18    11    19 1   
    19    12    13 ar  
    20    12    20 1   
    21    13    21 1   
@<TRIPOS>SUBSTRUCTURE
     1 1FD         1 TEMP              0 ****  ****    0 ROOT
