@<TRIPOS>MOLECULE
1FD
   21    21     1     0     0
SMALL
No Charge or Current Charge


@<TRIPOS>ATOM
      1 F3          -2.7370     0.7660    -1.0180 f          1 1FD      -0.110667
      2 C1          -2.6630     0.0040     0.0980 c3         1 1FD       0.514000
      3 F1          -2.5730     0.8330     1.1630 f          1 1FD      -0.110667
      4 F2          -3.8430    -0.6460     0.2070 f          1 1FD      -0.110667
      5 O           -1.5690    -0.9340     0.0440 os         1 1FD      -0.403100
      6 C2          -0.2390    -0.5690    -0.0670 ca         1 1FD       0.088100
      7 C7           0.2000     0.7740    -0.1410 ca         1 1FD      -0.102000
      8 C6           1.5720     1.0630    -0.2540 ca         1 1FD      -0.093000
      9 C5           2.5220     0.0230    -0.2940 ca         1 1FD      -0.075300
     10 C8           4.0070     0.3380    -0.4230 c3         1 1FD       0.196100
     11 N            4.6750     0.3480     0.8920 n8         1 1FD      -1.002200
     12 C4           2.0820    -1.3120    -0.2200 ca         1 1FD      -0.093000
     13 C3           0.7110    -1.6030    -0.1070 ca         1 1FD      -0.102000
     14 H1          -0.4990     1.6040    -0.1140 ha         1 1FD       0.133500
     15 H2           1.8980     2.0990    -0.3110 ha         1 1FD       0.128500
     16 H3           4.4910    -0.4130    -1.0630 h1         1 1FD       0.038700
     17 H4           4.1390     1.3220    -0.8960 h1         1 1FD       0.038700
     18 H5           5.6490     0.6520     0.7680 hn         1 1FD       0.400500
     19 H6           4.2600     1.0920     1.4660 hn         1 1FD       0.400500
     20 H8           2.8050    -2.1250    -0.2470 ha         1 1FD       0.128500
     21 H9           0.3820    -2.6380    -0.0500 ha         1 1FD       0.133500
@<TRIPOS>BOND
     1     1     2 1   
     2     2     3 1   
     3     2     4 1   
     4     2     5 1   
     5     5     6 1   
     6     6     7 ar  
     7     6    13 ar  
     8     7     8 ar  
     9     7    14 1   
    10     8     9 ar  
    11     8    15 1   
    12     9    10 1   
    13     9    12 ar  
    14    10    11 1   
    15    10    16 1   
    16    10    17 1   
    17    11    18 1   
    18    11    19 1   
    19    12    13 ar  
    20    12    20 1   
    21    13    21 1   
@<TRIPOS>SUBSTRUCTURE
     1 1FD         1 TEMP              0 ****  ****    0 ROOT
