@<TRIPOS>MOLECULE
1FE
   25    26     1     0     0
SMALL
No Charge or Current Charge


@<TRIPOS>ATOM
      1 O2          -4.9310    -1.1400    -0.1170 o          1 1FE      -0.564000
      2 C6          -3.8270    -0.6320    -0.0870 c          1 1FE       0.593000
      3 N2          -3.4900     0.6900     0.0140 ns         1 1FE      -0.502600
      4 N3          -2.6000    -1.2330    -0.1450 ns         1 1FE      -0.503600
      5 C7          -1.5260    -0.3310    -0.0840 ca         1 1FE       0.031600
      6 C5          -2.1030     0.9160     0.0200 ca         1 1FE      -0.023400
      7 C4          -1.3400     2.0800     0.1050 ca         1 1FE      -0.079000
      8 C3           0.0660     1.9270     0.0810 ca         1 1FE      -0.169000
      9 C8          -0.1430    -0.5170    -0.1100 ca         1 1FE      -0.133000
     10 C2           0.6740     0.6440    -0.0260 ca         1 1FE      -0.013000
     11 N1           2.0960     0.6010    -0.0410 ns         1 1FE      -0.154000
     12 C1           3.0020    -0.4480    -0.1460 c          1 1FE       0.604100
     13 O1           2.6800    -1.6290    -0.2590 o          1 1FE      -0.558100
     14 C9           4.4990     0.0140    -0.1150 c3         1 1FE       0.070800
     15 N4           5.5500    -1.0220     0.1920 n8         1 1FE      -0.972200
     16 H1          -4.1910     1.4220     0.0780 hn         1 1FE       0.467000
     17 H2          -2.4970    -2.2390    -0.2250 hn         1 1FE       0.471000
     18 H3          -1.8040     3.0610     0.1870 ha         1 1FE       0.123000
     19 H4           0.6920     2.8140     0.1460 ha         1 1FE       0.112000
     20 H5           0.2630    -1.5200    -0.1920 ha         1 1FE       0.156000
     21 H6           2.5290     1.5120     0.0410 hn         1 1FE       0.148000
     22 H7           4.7190     0.4560    -1.0970 h1         1 1FE       0.043700
     23 H8           4.5840     0.8170     0.6300 h1         1 1FE       0.043700
     24 H9           5.5090    -1.7710    -0.5130 hn         1 1FE       0.405000
     25 H10          6.4870    -0.6160     0.0620 hn         1 1FE       0.405000
@<TRIPOS>BOND
     1     1     2 2   
     2     2     3 1   
     3     2     4 1   
     4     3     6 1   
     5     3    16 1   
     6     4     5 1   
     7     4    17 1   
     8     5     6 ar  
     9     5     9 ar  
    10     6     7 ar  
    11     7     8 ar  
    12     7    18 1   
    13     8    10 ar  
    14     8    19 1   
    15     9    10 ar  
    16     9    20 1   
    17    10    11 1   
    18    11    12 1   
    19    11    21 1   
    20    12    13 2   
    21    12    14 1   
    22    14    15 1   
    23    14    22 1   
    24    14    23 1   
    25    15    24 1   
    26    15    25 1   
@<TRIPOS>SUBSTRUCTURE
     1 1FE         1 TEMP              0 ****  ****    0 ROOT
