@<TRIPOS>MOLECULE
1FE
   25    26     1     0     0
SMALL
bcc


@<TRIPOS>ATOM
      1 O2          -4.7890    -1.1850    -0.1380 o          1 1FE      -0.639500
      2 C6          -3.6950    -0.6510    -0.1020 c          1 1FE       0.802500
      3 N2          -3.4220     0.6860     0.0310 ns         1 1FE      -0.456100
      4 N3          -2.4670    -1.2620    -0.1880 ns         1 1FE      -0.457100
      5 C7          -1.4500    -0.3370    -0.1110 ca         1 1FE       0.031600
      6 C5          -2.0610     0.9100     0.0280 ca         1 1FE      -0.023400
      7 C4          -1.2960     2.0550     0.1280 ca         1 1FE      -0.097000
      8 C3           0.0860     1.9140     0.0890 ca         1 1FE      -0.187000
      9 C8          -0.0780    -0.4950    -0.1560 ca         1 1FE      -0.151000
     10 C2           0.6990     0.6630    -0.0510 ca         1 1FE       0.079600
     11 N1           2.0990     0.6570    -0.0990 ns         1 1FE      -0.480100
     12 C1           2.9590    -0.3880     0.0010 c          1 1FE       0.671100
     13 O1           2.6170    -1.5470     0.1370 o          1 1FE      -0.558100
     14 C9           4.4160     0.0310    -0.1080 c3         1 1FE       0.070800
     15 N4           5.3020    -1.0850     0.1230 n8         1 1FE      -0.861800
     16 H1          -4.1380     1.3880     0.1200 hn         1 1FE       0.353500
     17 H2          -2.3540    -2.2580    -0.2870 hn         1 1FE       0.357500
     18 H3          -1.7450     3.0330     0.2370 ha         1 1FE       0.141000
     19 H4           0.7030     2.8000     0.1720 ha         1 1FE       0.130000
     20 H5           0.3610    -1.4720    -0.2720 ha         1 1FE       0.174000
     21 H6           2.5210     1.5710    -0.1750 hn         1 1FE       0.314500
     22 H7           4.5400     0.5250    -1.0840 h1         1 1FE       0.043700
     23 H8           4.6120     0.8030     0.6410 h1         1 1FE       0.043700
     24 H9           5.2230    -1.7480    -0.6370 hn         1 1FE       0.349800
     25 H10          6.2550    -0.7500     0.1020 hn         1 1FE       0.349800
@<TRIPOS>BOND
     1     1     2 2   
     2     2     3 1   
     3     2     4 1   
     4     3     6 1   
     5     3    16 1   
     6     4     5 1   
     7     4    17 1   
     8     5     6 ar  
     9     5     9 ar  
    10     6     7 ar  
    11     7     8 ar  
    12     7    18 1   
    13     8    10 ar  
    14     8    19 1   
    15     9    10 ar  
    16     9    20 1   
    17    10    11 1   
    18    11    12 1   
    19    11    21 1   
    20    12    13 2   
    21    12    14 1   
    22    14    15 1   
    23    14    22 1   
    24    14    23 1   
    25    15    24 1   
    26    15    25 1   
@<TRIPOS>SUBSTRUCTURE
     1 1FE         1 TEMP              0 ****  ****    0 ROOT
