@<TRIPOS>MOLECULE
1FF
   24    25     1     0     0
SMALL
No Charge or Current Charge


@<TRIPOS>ATOM
      1 O1          -2.9370    -2.1090     0.0790 o          1 1FF      -0.724500
      2 C11         -1.8050    -1.6860    -0.1060 c          1 1FF       0.735600
      3 O2          -0.8930    -2.4200    -0.4510 o          1 1FF      -0.724500
      4 C1          -1.5830    -0.2220     0.0100 cc         1 1FF      -0.198600
      5 C3          -2.6390     0.6820     0.1640 cc         1 1FF       0.257900
      6 N2          -2.2720     1.9440     0.1880 nd         1 1FF      -0.582800
      7 N1          -0.8940     1.8600     0.0390 na         1 1FF       0.103800
      8 C4          -0.0830     3.0880     0.1310 c3         1 1FF       0.081900
      9 C2          -0.4300     0.5300    -0.0910 cd         1 1FF      -0.118000
     10 C5           0.9940     0.1130    -0.0500 ca         1 1FF       0.029000
     11 C10          1.4080    -1.0000     0.7130 ca         1 1FF      -0.076000
     12 C9           2.7630    -1.3720     0.7720 ca         1 1FF      -0.127000
     13 C8           3.7270    -0.6340     0.0700 ca         1 1FF      -0.125000
     14 C7           3.3340     0.4800    -0.6860 ca         1 1FF      -0.127000
     15 C6           1.9790     0.8530    -0.7410 ca         1 1FF      -0.076000
     16 H2          -3.6930     0.4510     0.2520 h4         1 1FF       0.037100
     17 H3           0.2020     3.4170    -0.8760 h1         1 1FF       0.037700
     18 H4          -0.6610     3.8840     0.6170 h1         1 1FF       0.037700
     19 H5           0.8180     2.8940     0.7250 h1         1 1FF       0.037700
     20 H6           0.6860    -1.5600     1.3000 ha         1 1FF       0.119500
     21 H7           3.0650    -2.2290     1.3710 ha         1 1FF       0.096500
     22 H8           4.7750    -0.9210     0.1150 ha         1 1FF       0.091000
     23 H9           4.0770     1.0550    -1.2340 ha         1 1FF       0.096500
     24 H10          1.6970     1.7030    -1.3540 ha         1 1FF       0.119500
@<TRIPOS>BOND
     1     1     2 1   
     2     2     3 1   
     3     2     4 1   
     4     4     5 1   
     5     4     9 2   
     6     5     6 2   
     7     5    16 1   
     8     6     7 1   
     9     7     8 1   
    10     7     9 1   
    11     8    17 1   
    12     8    18 1   
    13     8    19 1   
    14     9    10 1   
    15    10    11 ar  
    16    10    15 ar  
    17    11    12 ar  
    18    11    20 1   
    19    12    13 ar  
    20    12    21 1   
    21    13    14 ar  
    22    13    22 1   
    23    14    15 ar  
    24    14    23 1   
    25    15    24 1   
@<TRIPOS>SUBSTRUCTURE
     1 1FF         1 TEMP              0 ****  ****    0 ROOT
