@<TRIPOS>MOLECULE
1FF
   24    25     1     0     0
SMALL
bcc


@<TRIPOS>ATOM
      1 O1          -2.9740    -2.0960    -0.3550 o          1 1FF      -0.829800
      2 C11         -1.7920    -1.6930    -0.3440 c          1 1FF       0.946200
      3 O2          -0.7670    -2.3790    -0.5180 o          1 1FF      -0.829800
      4 C1          -1.6110    -0.2240    -0.1010 cc         1 1FF      -0.263900
      5 C3          -2.6340     0.7320     0.0100 cc         1 1FF       0.323200
      6 N2          -2.1580     1.9470     0.1910 nd         1 1FF      -0.582800
      7 N1          -0.8330     1.8060     0.2030 na         1 1FF       0.082400
      8 C4          -0.0010     2.9710     0.4030 c3         1 1FF       0.052600
      9 C2          -0.4470     0.5220     0.0270 cd         1 1FF      -0.067300
     10 C5           0.9680     0.1310     0.0090 ca         1 1FF       0.029000
     11 C10          1.4520    -0.7990     0.9270 ca         1 1FF      -0.094000
     12 C9           2.7920    -1.1510     0.9330 ca         1 1FF      -0.145000
     13 C8           3.6680    -0.5860     0.0120 ca         1 1FF      -0.143000
     14 C7           3.1940     0.3350    -0.9110 ca         1 1FF      -0.145000
     15 C6           1.8510     0.6920    -0.9120 ca         1 1FF      -0.094000
     16 H2          -3.7000     0.5670    -0.0390 h4         1 1FF       0.037100
     17 H3           0.2690     3.4360    -0.5440 h1         1 1FF       0.037700
     18 H4          -0.5520     3.6890     1.0040 h1         1 1FF       0.037700
     19 H5           0.9080     2.6950     0.9300 h1         1 1FF       0.037700
     20 H6           0.7750    -1.2430     1.6450 ha         1 1FF       0.137500
     21 H7           3.1570    -1.8690     1.6560 ha         1 1FF       0.114500
     22 H8           4.7140    -0.8640     0.0150 ha         1 1FF       0.109000
     23 H9           3.8660     0.7770    -1.6360 ha         1 1FF       0.114500
     24 H10          1.4900     1.4030    -1.6450 ha         1 1FF       0.137500
@<TRIPOS>BOND
     1     1     2 1   
     2     2     3 1   
     3     2     4 1   
     4     4     5 1   
     5     4     9 2   
     6     5     6 2   
     7     5    16 1   
     8     6     7 1   
     9     7     8 1   
    10     7     9 1   
    11     8    17 1   
    12     8    18 1   
    13     8    19 1   
    14     9    10 1   
    15    10    11 ar  
    16    10    15 ar  
    17    11    12 ar  
    18    11    20 1   
    19    12    13 ar  
    20    12    21 1   
    21    13    14 ar  
    22    13    22 1   
    23    14    15 ar  
    24    14    23 1   
    25    15    24 1   
@<TRIPOS>SUBSTRUCTURE
     1 1FF         1 TEMP              0 ****  ****    0 ROOT
