@<TRIPOS>MOLECULE
1FG
   49    52     1     0     0
SMALL
No Charge or Current Charge


@<TRIPOS>ATOM
      1 O2           4.5710    -1.9330    -2.3830 o          1 1FG      -0.528100
      2 C15          4.3660    -1.0240    -1.5940 c          1 1FG       0.713100
      3 N3           3.1500    -0.4220    -1.5290 nc         1 1FG      -0.670100
      4 C16          5.4010    -0.5350    -0.6750 ca         1 1FG      -0.223600
      5 C21          5.0650     0.5270     0.1530 ca         1 1FG       0.310000
      6 C20          6.0160     1.0310     1.0540 ca         1 1FG      -0.173000
      7 C19          7.3030     0.4690     1.1230 ca         1 1FG      -0.052000
      8 C18          7.6390    -0.6040     0.2830 ca         1 1FG      -0.152000
      9 C17          6.6890    -1.1100    -0.6200 ca         1 1FG      -0.018000
     10 N4           3.8150     1.1250     0.1230 na         1 1FG      -0.907200
     11 C14          2.8440     0.5730    -0.7180 cd         1 1FG       0.669200
     12 C13          1.4200     1.1470    -0.7480 c3         1 1FG       0.132500
     13 N1           0.3940     0.4960     0.1390 n3         1 1FG      -0.669600
     14 C1           0.7800     0.5080     1.5740 c3         1 1FG       0.146100
     15 C2          -0.9920     1.0260    -0.1060 c3         1 1FG       0.091800
     16 C3          -2.2330     0.1800     0.3470 c          1 1FG       0.600100
     17 O1          -2.1050    -0.7770     1.1070 o          1 1FG      -0.537100
     18 N2          -3.5070     0.5130    -0.2060 n          1 1FG      -0.232400
     19 C12         -4.6520    -0.3780    -0.1820 ca         1 1FG      -0.040000
     20 C11         -4.4880    -1.7820    -0.2230 ca         1 1FG      -0.090000
     21 C10         -5.5870    -2.6430    -0.0660 ca         1 1FG      -0.100000
     22 C9          -6.8640    -2.1150     0.1680 ca         1 1FG      -0.117000
     23 C8          -7.0390    -0.7260     0.2530 ca         1 1FG      -0.102000
     24 C7          -5.9430     0.1450     0.1000 ca         1 1FG      -0.108300
     25 C6          -6.1950     1.6570     0.1820 c6         1 1FG      -0.026100
     26 C5          -4.9010     2.4900     0.2970 c6         1 1FG      -0.101400
     27 C4          -3.8070     1.9100    -0.6170 c6         1 1FG       0.096000
     28 H1           5.7620     1.8630     1.7050 ha         1 1FG       0.116000
     29 H2           8.0360     0.8650     1.8230 ha         1 1FG       0.116000
     30 H3           8.6330    -1.0440     0.3310 ha         1 1FG       0.122000
     31 H4           6.9540    -1.9440    -1.2690 ha         1 1FG       0.141000
     32 H5           3.5840     1.9150     0.7140 hn         1 1FG       0.502000
     33 H6           1.4870     2.2150    -0.5040 h1         1 1FG       0.044700
     34 H7           1.0790     1.0950    -1.7900 h1         1 1FG       0.044700
     35 H9           0.8680     1.5380     1.9460 h1         1 1FG       0.040700
     36 H10          0.0410    -0.0140     2.1930 h1         1 1FG       0.040700
     37 H11          1.7430     0.0050     1.7260 h1         1 1FG       0.040700
     38 H12         -1.0860     2.0150     0.3600 h1         1 1FG       0.046700
     39 H13         -1.1270     1.1730    -1.1850 h1         1 1FG       0.046700
     40 H14         -3.5090    -2.2180    -0.4050 ha         1 1FG       0.135000
     41 H15         -5.4450    -3.7200    -0.1220 ha         1 1FG       0.117000
     42 H16         -7.7160    -2.7810     0.2890 ha         1 1FG       0.114000
     43 H17         -8.0320    -0.3230     0.4420 ha         1 1FG       0.109000
     44 H18         -6.7400     1.9670    -0.7200 hc         1 1FG       0.051200
     45 H19         -6.8550     1.8860     1.0300 hc         1 1FG       0.051200
     46 H20         -5.1020     3.5380     0.0370 hc         1 1FG       0.048700
     47 H21         -4.5470     2.4830     1.3370 hc         1 1FG       0.048700
     48 H22         -2.9270     2.5610    -0.5700 h1         1 1FG       0.054700
     49 H23         -4.1570     1.9090    -1.6590 h1         1 1FG       0.054700
@<TRIPOS>BOND
     1     1     2 2   
     2     2     3 1   
     3     2     4 1   
     4     3    11 2   
     5     4     5 ar  
     6     4     9 ar  
     7     5     6 ar  
     8     5    10 1   
     9     6     7 ar  
    10     6    28 1   
    11     7     8 ar  
    12     7    29 1   
    13     8     9 ar  
    14     8    30 1   
    15     9    31 1   
    16    10    11 1   
    17    10    32 1   
    18    11    12 1   
    19    12    13 1   
    20    12    33 1   
    21    12    34 1   
    22    13    14 1   
    23    13    15 1   
    24    14    35 1   
    25    14    36 1   
    26    14    37 1   
    27    15    16 1   
    28    15    38 1   
    29    15    39 1   
    30    16    17 2   
    31    16    18 1   
    32    18    19 1   
    33    18    27 1   
    34    19    20 ar  
    35    19    24 ar  
    36    20    21 ar  
    37    20    40 1   
    38    21    22 ar  
    39    21    41 1   
    40    22    23 ar  
    41    22    42 1   
    42    23    24 ar  
    43    23    43 1   
    44    24    25 1   
    45    25    26 1   
    46    25    44 1   
    47    25    45 1   
    48    26    27 1   
    49    26    46 1   
    50    26    47 1   
    51    27    48 1   
    52    27    49 1   
@<TRIPOS>SUBSTRUCTURE
     1 1FG         1 TEMP              0 ****  ****    0 ROOT
