@<TRIPOS>MOLECULE
1FG
   49    52     1     0     0
SMALL
bcc


@<TRIPOS>ATOM
      1 O2           4.0180    -2.6060    -0.8810 o          1 1FG      -0.528100
      2 C15          3.9410    -1.4160    -0.6120 c          1 1FG       0.713100
      3 N3           2.7410    -0.7530    -0.7190 nc         1 1FG      -0.670100
      4 C16          5.1130    -0.6430    -0.1730 ca         1 1FG      -0.223600
      5 C21          4.9570     0.7110     0.1230 ca         1 1FG       0.171600
      6 C20          6.0370     1.4870     0.5460 ca         1 1FG      -0.191000
      7 C19          7.2750     0.8920     0.6680 ca         1 1FG      -0.070000
      8 C18          7.4510    -0.4640     0.3750 ca         1 1FG      -0.170000
      9 C17          6.3780    -1.2220    -0.0410 ca         1 1FG      -0.036000
     10 N4           3.6990     1.2490    -0.0130 na         1 1FG      -0.713600
     11 C14          2.6620     0.5070    -0.4270 cd         1 1FG       0.669200
     12 C13          1.3500     1.2330    -0.5850 c3         1 1FG       0.132500
     13 N1           0.2580     0.4990     0.0050 n3         1 1FG      -0.669600
     14 C1           0.3810     0.4320     1.4480 c3         1 1FG       0.146100
     15 C2          -1.0160     1.0340    -0.4040 c3         1 1FG       0.091800
     16 C3          -2.1300    -0.0070    -0.3030 c          1 1FG       0.667100
     17 O1          -1.8930    -1.1550     0.0170 o          1 1FG      -0.537100
     18 N2          -3.3890     0.4220    -0.6140 n          1 1FG      -0.392000
     19 C12         -4.5100    -0.4140    -0.3760 ca         1 1FG       0.052600
     20 C11         -4.5630    -1.7120    -0.8850 ca         1 1FG      -0.108000
     21 C10         -5.6720    -2.5070    -0.6520 ca         1 1FG      -0.118000
     22 C9          -6.7440    -2.0080     0.0780 ca         1 1FG      -0.135000
     23 C8          -6.7000    -0.7090     0.5530 ca         1 1FG      -0.120000
     24 C7          -5.5910     0.1090     0.3380 ca         1 1FG      -0.108300
     25 C6          -5.6200     1.5350     0.8330 c6         1 1FG      -0.026100
     26 C5          -4.3430     2.3200     0.5420 c6         1 1FG      -0.101400
     27 C4          -3.7390     1.8300    -0.7620 c6         1 1FG       0.096000
     28 H1           5.8990     2.5370     0.7700 ha         1 1FG       0.134000
     29 H2           8.1190     1.4860     0.9930 ha         1 1FG       0.134000
     30 H3           8.4300    -0.9130     0.4770 ha         1 1FG       0.140000
     31 H4           6.5050    -2.2720    -0.2700 ha         1 1FG       0.159000
     32 H5           3.5550     2.2240     0.2090 hn         1 1FG       0.446800
     33 H6           1.4490     2.2570    -0.1880 h1         1 1FG       0.044700
     34 H7           1.1780     1.3340    -1.6600 h1         1 1FG       0.044700
     35 H9           0.3690     1.4260     1.9220 h1         1 1FG       0.040700
     36 H10         -0.4300    -0.1540     1.8720 h1         1 1FG       0.040700
     37 H11          1.3120    -0.0620     1.7310 h1         1 1FG       0.040700
     38 H12         -1.2840     1.9350     0.1720 h1         1 1FG       0.046700
     39 H13         -0.9560     1.3530    -1.4480 h1         1 1FG       0.046700
     40 H14         -3.7460    -2.0970    -1.4760 ha         1 1FG       0.153000
     41 H15         -5.7020    -3.5130    -1.0510 ha         1 1FG       0.135000
     42 H16         -7.6140    -2.6260     0.2640 ha         1 1FG       0.132000
     43 H17         -7.5440    -0.3110     1.1050 ha         1 1FG       0.127000
     44 H18         -6.4650     2.0340     0.3500 hc         1 1FG       0.051200
     45 H19         -5.8390     1.5480     1.9030 hc         1 1FG       0.051200
     46 H20         -4.5630     3.3870     0.4860 hc         1 1FG       0.048700
     47 H21         -3.6090     2.1860     1.3410 hc         1 1FG       0.048700
     48 H22         -2.8730     2.4140    -1.0590 h1         1 1FG       0.054700
     49 H23         -4.4600     1.9180    -1.5780 h1         1 1FG       0.054700
@<TRIPOS>BOND
     1     1     2 2   
     2     2     3 1   
     3     2     4 1   
     4     3    11 2   
     5     4     5 ar  
     6     4     9 ar  
     7     5     6 ar  
     8     5    10 1   
     9     6     7 ar  
    10     6    28 1   
    11     7     8 ar  
    12     7    29 1   
    13     8     9 ar  
    14     8    30 1   
    15     9    31 1   
    16    10    11 1   
    17    10    32 1   
    18    11    12 1   
    19    12    13 1   
    20    12    33 1   
    21    12    34 1   
    22    13    14 1   
    23    13    15 1   
    24    14    35 1   
    25    14    36 1   
    26    14    37 1   
    27    15    16 1   
    28    15    38 1   
    29    15    39 1   
    30    16    17 2   
    31    16    18 1   
    32    18    19 1   
    33    18    27 1   
    34    19    20 ar  
    35    19    24 ar  
    36    20    21 ar  
    37    20    40 1   
    38    21    22 ar  
    39    21    41 1   
    40    22    23 ar  
    41    22    42 1   
    42    23    24 ar  
    43    23    43 1   
    44    24    25 1   
    45    25    26 1   
    46    25    44 1   
    47    25    45 1   
    48    26    27 1   
    49    26    46 1   
    50    26    47 1   
    51    27    48 1   
    52    27    49 1   
@<TRIPOS>SUBSTRUCTURE
     1 1FG         1 TEMP              0 ****  ****    0 ROOT
