@<TRIPOS>MOLECULE
1FI
   32    33     1     0     0
SMALL
No Charge or Current Charge


@<TRIPOS>ATOM
      1 N1           7.3590    36.0470    28.6220 nb         1 1FI      -0.612000
      2 C2           6.1190    36.6100    28.8350 ca         1 1FI       0.152500
      3 C3           5.2110    36.0710    29.8100 ca         1 1FI       0.623900
      4 C11          2.7510    35.8110    30.4510 c3         1 1FI       0.272100
      5 C12          2.3120    34.8440    29.3320 ca         1 1FI      -0.038300
      6 C13          1.9660    33.4790    29.5740 ca         1 1FI      -0.187300
      7 C14          1.5870    32.6670    28.4760 ca         1 1FI      -0.063000
      8 C15          1.5320    33.1870    27.1750 ca         1 1FI      -0.119000
      9 C16          1.8460    34.5300    26.9430 ca         1 1FI      -0.077000
     10 C17          2.2290    35.3490    28.0140 ca         1 1FI      -0.113000
     11 C18          1.9830    32.8670    30.9910 c3         1 1FI       0.353300
     12 C5           6.7390    34.4490    30.3530 ca         1 1FI       0.373900
     13 C6           7.6490    34.9640    29.3930 ca         1 1FI       0.207900
     14 C7           5.7140    37.8270    28.0130 c          1 1FI       0.530600
     15 F19          3.2330    32.8120    31.5010 f          1 1FI      -0.114667
     16 F20          1.2260    33.5800    31.8570 f          1 1FI      -0.114667
     17 F21          1.5030    31.6030    31.0300 f          1 1FI      -0.114667
     18 N10          3.9490    36.5860    30.0720 nu         1 1FI      -0.918100
     19 N4           5.5140    34.9990    30.5710 nb         1 1FI      -0.728000
     20 N9           6.6040    38.2840    27.1000 nt         1 1FI      -0.577000
     21 O8           4.6440    38.4100    28.1300 o          1 1FI      -0.649100
     22 H1           1.9160    36.4960    30.6570 h1         1 1FI       0.076700
     23 H2           2.9530    35.2770    31.3870 h1         1 1FI       0.076700
     24 H3           1.3270    31.6200    28.6190 ha         1 1FI       0.130000
     25 H4           1.2360    32.5470    26.3460 ha         1 1FI       0.121000
     26 H5           1.7940    34.9360    25.9360 ha         1 1FI       0.119000
     27 H6           2.4630    36.3920    27.8110 ha         1 1FI       0.123000
     28 H7           7.0000    33.5810    30.9560 h4         1 1FI       0.029100
     29 H8           8.6220    34.5000    29.2430 h4         1 1FI       0.033100
     30 H9           3.7800    37.4270    29.5070 hn         1 1FI       0.543000
     31 H10          6.3750    39.0890    26.5350 hn         1 1FI       0.330000
     32 H11          7.4900    37.8110    26.9970 hn         1 1FI       0.330000
@<TRIPOS>BOND
     1     1     2 ar  
     2     1    13 ar  
     3     2     3 ar  
     4     2    14 1   
     5     3    18 1   
     6     3    19 ar  
     7     4     5 1   
     8     4    18 1   
     9     4    22 1   
    10     4    23 1   
    11     5     6 ar  
    12     5    10 ar  
    13     6     7 ar  
    14     6    11 1   
    15     7     8 ar  
    16     7    24 1   
    17     8     9 ar  
    18     8    25 1   
    19     9    10 ar  
    20     9    26 1   
    21    10    27 1   
    22    11    15 1   
    23    11    16 1   
    24    11    17 1   
    25    12    13 ar  
    26    12    19 ar  
    27    12    28 1   
    28    13    29 1   
    29    14    20 1   
    30    14    21 2   
    31    18    30 1   
    32    20    31 1   
    33    20    32 1   
@<TRIPOS>SUBSTRUCTURE
     1 1FI         1 TEMP              0 ****  ****    0 ROOT
