@<TRIPOS>MOLECULE
1FI
   32    33     1     0     0
SMALL
bcc


@<TRIPOS>ATOM
      1 N1           7.3860    36.4130    28.5720 nb         1 1FI      -0.612000
      2 C2           6.1710    36.8750    28.8020 ca         1 1FI       0.152500
      3 C3           5.1960    36.0560    29.4370 ca         1 1FI       0.623900
      4 C11          2.9420    35.6170    30.2670 c3         1 1FI       0.272100
      5 C12          2.4040    34.5750    29.2990 ca         1 1FI      -0.038300
      6 C13          1.7010    33.4350    29.7190 ca         1 1FI      -0.187300
      7 C14          1.2120    32.5260    28.7860 ca         1 1FI      -0.081000
      8 C15          1.4050    32.7310    27.4290 ca         1 1FI      -0.137000
      9 C16          2.0870    33.8580    27.0040 ca         1 1FI      -0.095000
     10 C17          2.5750    34.7640    27.9330 ca         1 1FI      -0.131000
     11 C18          1.4610    33.1620    31.1770 c3         1 1FI       0.717200
     12 C5           6.7410    34.3830    29.5510 ca         1 1FI       0.373900
     13 C6           7.6960    35.1800    28.9360 ca         1 1FI       0.207900
     14 C7           5.8820    38.2710    28.3550 c          1 1FI       0.597600
     15 F19          2.6000    32.9280    31.8480 f          1 1FI      -0.235967
     16 F20          0.8600    34.1930    31.7920 f          1 1FI      -0.235967
     17 F21          0.6850    32.0930    31.3780 f          1 1FI      -0.235967
     18 N10          3.9470    36.4750    29.7020 nu         1 1FI      -0.862900
     19 N4           5.5160    34.8090    29.7930 nb         1 1FI      -0.728000
     20 N9           6.9040    38.8990    27.7720 nt         1 1FI      -0.644000
     21 O8           4.7770    38.7850    28.5190 o          1 1FI      -0.649100
     22 H1           2.1250    36.2640    30.5890 h1         1 1FI       0.076700
     23 H2           3.3410    35.1450    31.1630 h1         1 1FI       0.076700
     24 H3           0.6740    31.6440    29.1050 ha         1 1FI       0.148000
     25 H4           1.0220    32.0140    26.7160 ha         1 1FI       0.139000
     26 H5           2.2430    34.0370    25.9480 ha         1 1FI       0.137000
     27 H6           3.1010    35.6420    27.5810 ha         1 1FI       0.141000
     28 H7           6.9780    33.3690    29.8510 h4         1 1FI       0.029100
     29 H8           8.6970    34.8220    28.7360 h4         1 1FI       0.033100
     30 H9           3.7050    37.4020    29.3830 hn         1 1FI       0.487800
     31 H10          6.7970    39.8430    27.4390 hn         1 1FI       0.330000
     32 H11          7.7920    38.4390    27.6560 hn         1 1FI       0.330000
@<TRIPOS>BOND
     1     1     2 ar  
     2     1    13 ar  
     3     2     3 ar  
     4     2    14 1   
     5     3    18 1   
     6     3    19 ar  
     7     4     5 1   
     8     4    18 1   
     9     4    22 1   
    10     4    23 1   
    11     5     6 ar  
    12     5    10 ar  
    13     6     7 ar  
    14     6    11 1   
    15     7     8 ar  
    16     7    24 1   
    17     8     9 ar  
    18     8    25 1   
    19     9    10 ar  
    20     9    26 1   
    21    10    27 1   
    22    11    15 1   
    23    11    16 1   
    24    11    17 1   
    25    12    13 ar  
    26    12    19 ar  
    27    12    28 1   
    28    13    29 1   
    29    14    20 1   
    30    14    21 2   
    31    18    30 1   
    32    20    31 1   
    33    20    32 1   
@<TRIPOS>SUBSTRUCTURE
     1 1FI         1 TEMP              0 ****  ****    0 ROOT
