@<TRIPOS>MOLECULE
1FJ
   38    41     1     0     0
SMALL
No Charge or Current Charge


@<TRIPOS>ATOM
      1 C10         -1.3290    -0.8410     0.0570 c          1 1FJ       0.673300
      2 C13          4.6180     1.0370    -0.1490 cc         1 1FJ      -0.116000
      3 C17          5.8020     0.3430    -0.0600 cd         1 1FJ      -0.246000
      4 C20         -6.2500     0.1110    -0.2330 ca         1 1FJ      -0.062300
      5 C21         -4.2840    -1.7950     0.4360 ca         1 1FJ      -0.098000
      6 C22         -5.6420    -2.1320     0.5050 ca         1 1FJ      -0.098000
      7 C24         -6.6180    -1.1850     0.1730 ca         1 1FJ      -0.112000
      8 N01          2.1290     0.6260    -0.1090 n          1 1FJ      -0.107200
      9 C02          1.1750    -0.3790     0.0100 cc         1 1FJ       0.247200
     10 C03         -0.1340     0.0290    -0.0440 cd         1 1FJ      -0.318600
     11 C04          1.6260     1.9110    -0.2670 cs         1 1FJ       0.283000
     12 C05          3.4710     0.1990    -0.0520 cc         1 1FJ       0.067600
     13 C06          3.7940    -1.1240     0.1100 cd         1 1FJ      -0.381600
     14 N07          1.5060    -1.7060     0.1720 ns         1 1FJ      -0.388100
     15 S08         -0.1450     1.7770    -0.2570 ss         1 1FJ       0.064800
     16 C09          2.7840    -2.1860     0.2350 c          1 1FJ       0.625600
     17 N11         -2.5120    -0.1230    -0.0400 ns         1 1FJ      -0.148000
     18 S12          5.5360    -1.3980     0.1500 ss         1 1FJ       0.388000
     19 C14         -3.8850    -0.5040     0.0250 ca         1 1FJ      -0.043000
     20 S15          2.3880     3.3960    -0.4450 s          1 1FJ      -0.436400
     21 C16         -4.8730     0.4580    -0.3160 ca         1 1FJ      -0.090300
     22 O18          3.0380    -3.3690     0.3800 o          1 1FJ      -0.501000
     23 O19         -1.2560    -2.0560     0.2010 o          1 1FJ      -0.620100
     24 C23         -4.4310     1.8610    -0.7600 c3         1 1FJ      -0.050800
     25 H1           4.5940     2.1090    -0.2790 ha         1 1FJ       0.184000
     26 H2           6.8120     0.7310    -0.1040 h4         1 1FJ       0.163000
     27 H3          -3.5580    -2.5500     0.7200 ha         1 1FJ       0.129000
     28 H4          -5.9390    -3.1290     0.8240 ha         1 1FJ       0.118000
     29 H5          -7.6680    -1.4620     0.2370 ha         1 1FJ       0.114000
     30 H6          -2.3740     0.8680    -0.1790 hn         1 1FJ       0.158000
     31 H7          -4.0420     2.4330     0.0910 hc         1 1FJ       0.043700
     32 H8          -3.6390     1.8080    -1.5160 hc         1 1FJ       0.043700
     33 H9          -5.2350     2.4530    -1.2090 hc         1 1FJ       0.043700
     34 H10         -7.2630     2.0220     0.0280 hc         1 1FJ       0.043033
     35 H11         -7.3360     1.3820    -1.6270 hc         1 1FJ       0.043033
     36 H12         -8.3550     0.6930    -0.3610 hc         1 1FJ       0.043033
     37 H13          0.7640    -2.3920     0.2520 hn         1 1FJ       0.391500
     38 C25         -7.3600     1.1060    -0.5670 c3         1 1FJ      -0.047800
@<TRIPOS>BOND
     1     1    10 1   
     2     1    17 1   
     3     1    23 2   
     4     2     3 2   
     5     2    12 1   
     6     2    25 1   
     7     3    18 1   
     8     3    26 1   
     9     4     7 ar  
    10     4    21 ar  
    11     4    38 1   
    12     5     6 ar  
    13     5    19 ar  
    14     5    27 1   
    15     6     7 ar  
    16     6    28 1   
    17     7    29 1   
    18     8     9 1   
    19     8    11 1   
    20     8    12 1   
    21     9    10 2   
    22     9    14 1   
    23    10    15 1   
    24    11    15 1   
    25    11    20 2   
    26    12    13 2   
    27    13    16 1   
    28    13    18 1   
    29    14    16 1   
    30    14    37 1   
    31    16    22 2   
    32    17    19 1   
    33    17    30 1   
    34    19    21 ar  
    35    21    24 1   
    36    24    31 1   
    37    24    32 1   
    38    24    33 1   
    39    34    38 1   
    40    35    38 1   
    41    36    38 1   
@<TRIPOS>SUBSTRUCTURE
     1 1FJ         1 TEMP              0 ****  ****    0 ROOT
