@<TRIPOS>MOLECULE
1FJ
   38    41     1     0     0
SMALL
abcg2


@<TRIPOS>ATOM
      1 C10         -1.4280    -0.4020     0.2030 c          1 1FJ       0.673300
      2 C13          4.6600     0.8590     0.0420 cc         1 1FJ      -0.116000
      3 C17          5.6960     0.0370    -0.2900 cd         1 1FJ      -0.246000
      4 C20         -6.1310    -0.0780    -0.3550 ca         1 1FJ      -0.062300
      5 C21         -4.1670    -1.3570     1.1720 ca         1 1FJ      -0.098000
      6 C22         -5.4560    -1.8560     1.1440 ca         1 1FJ      -0.098000
      7 C24         -6.4290    -1.2150     0.3910 ca         1 1FJ      -0.112000
      8 N01          2.1220     0.6370     0.2030 n          1 1FJ      -0.107200
      9 C02          1.0550    -0.2360     0.0430 cc         1 1FJ       0.247200
     10 C03         -0.1600     0.3150     0.3120 cd         1 1FJ      -0.318600
     11 C04          1.7600     1.9070     0.6070 cs         1 1FJ       0.283000
     12 C05          3.4210     0.1730    -0.0470 cc         1 1FJ       0.067600
     13 C06          3.5760    -1.1350    -0.4420 cd         1 1FJ      -0.381600
     14 N07          1.2730    -1.5160    -0.3500 ns         1 1FJ      -0.388100
     15 S08          0.0520     1.9730     0.7870 ss         1 1FJ       0.064800
     16 C09          2.4970    -2.0750    -0.6210 c          1 1FJ       0.625600
     17 N11         -2.5470     0.3060     0.4700 ns         1 1FJ      -0.148000
     18 S12          5.2110    -1.5410    -0.7060 ss         1 1FJ       0.388000
     19 C14         -3.8560    -0.2300     0.4200 ca         1 1FJ      -0.043000
     20 S15          2.7050     3.2190     0.9040 s          1 1FJ      -0.436400
     21 C16         -4.8180     0.4160    -0.3610 ca         1 1FJ      -0.090300
     22 O18          2.6250    -3.2300    -0.9680 o          1 1FJ      -0.501000
     23 O19         -1.4480    -1.5870    -0.1200 o          1 1FJ      -0.620100
     24 C23         -4.4460     1.6260    -1.1700 c3         1 1FJ      -0.050800
     25 H1           4.7900     1.8860     0.3300 ha         1 1FJ       0.184000
     26 H2           6.7420     0.3030    -0.3070 h4         1 1FJ       0.163000
     27 H3          -3.4130    -1.8280     1.7880 ha         1 1FJ       0.129000
     28 H4          -5.7070    -2.7360     1.7220 ha         1 1FJ       0.118000
     29 H5          -7.4420    -1.5990     0.3870 ha         1 1FJ       0.114000
     30 H6          -2.4770     1.2980     0.6420 hn         1 1FJ       0.158000
     31 H7          -4.4620     2.5350    -0.5620 hc         1 1FJ       0.043700
     32 H8          -3.4460     1.5360    -1.5920 hc         1 1FJ       0.043700
     33 H9          -5.1330     1.7860    -1.9970 hc         1 1FJ       0.043700
     34 H10         -7.3220     1.6470    -0.8750 hc         1 1FJ       0.043033
     35 H11         -7.0200     0.5590    -2.2190 hc         1 1FJ       0.043033
     36 H12         -8.1780     0.1120    -0.9730 hc         1 1FJ       0.043033
     37 H13          0.4290    -2.0810    -0.4340 hn         1 1FJ       0.391500
     38 C25         -7.2170     0.5950    -1.1450 c3         1 1FJ      -0.047800
@<TRIPOS>BOND
     1     1    10 1   
     2     1    17 1   
     3     1    23 2   
     4     2     3 2   
     5     2    12 1   
     6     2    25 1   
     7     3    18 1   
     8     3    26 1   
     9     4     7 ar  
    10     4    21 ar  
    11     4    38 1   
    12     5     6 ar  
    13     5    19 ar  
    14     5    27 1   
    15     6     7 ar  
    16     6    28 1   
    17     7    29 1   
    18     8     9 1   
    19     8    11 1   
    20     8    12 1   
    21     9    10 2   
    22     9    14 1   
    23    10    15 1   
    24    11    15 1   
    25    11    20 2   
    26    12    13 2   
    27    13    16 1   
    28    13    18 1   
    29    14    16 1   
    30    14    37 1   
    31    16    22 2   
    32    17    19 1   
    33    17    30 1   
    34    19    21 ar  
    35    21    24 1   
    36    24    31 1   
    37    24    32 1   
    38    24    33 1   
    39    34    38 1   
    40    35    38 1   
    41    36    38 1   
@<TRIPOS>SUBSTRUCTURE
     1 1FJ         1 TEMP              0 ****  ****    0 ROOT
