@<TRIPOS>MOLECULE
1FK
   31    33     1     0     0
SMALL
bcc


@<TRIPOS>ATOM
      1 O           -3.8460     1.6650     0.0180 o          1 1FK      -0.575100
      2 C1          -2.6950     2.0870     0.0160 c          1 1FK       0.618300
      3 C           -2.4150     3.5710     0.0220 c3         1 1FK      -0.186100
      4 C2          -1.5410     1.2270     0.0060 cc         1 1FK      -0.298300
      5 N3          -1.5780    -0.1740    -0.0030 na         1 1FK       0.071700
      6 C13         -2.6490    -1.0100    -0.0040 cc         1 1FK      -0.024300
      7 C12         -2.4750    -2.3540    -0.0140 cd         1 1FK      -0.232000
      8 C11         -1.1690    -2.9190    -0.0210 cd         1 1FK       0.203600
      9 N2          -1.0200    -4.2650    -0.0710 nv         1 1FK      -0.843200
     10 C10         -0.0870    -2.0540    -0.0180 cc         1 1FK      -0.228000
     11 C9          -0.2900    -0.6740    -0.0110 cc         1 1FK       0.076700
     12 C4           0.5910     0.4370    -0.0070 cd         1 1FK      -0.296800
     13 C3          -0.2060     1.5830     0.0030 cd         1 1FK      -0.015000
     14 C5           2.0370     0.4250    -0.0130 ca         1 1FK       0.777800
     15 N1           2.6680    -0.7530    -0.0190 nb         1 1FK      -0.724500
     16 C8           3.9930    -0.7340    -0.0240 ca         1 1FK       0.448700
     17 C7           4.7210     0.4430    -0.0230 ca         1 1FK      -0.393600
     18 C6           3.9740     1.6120    -0.0160 ca         1 1FK       0.448700
     19 N            2.6530     1.6130    -0.0110 nb         1 1FK      -0.724500
     20 H1          -3.3520     4.1240     0.0410 hc         1 1FK       0.061367
     21 H2          -1.8240     3.8590     0.8920 hc         1 1FK       0.061367
     22 H3          -1.8540     3.8690    -0.8640 hc         1 1FK       0.061367
     23 H4          -3.6240    -0.5540     0.0040 h4         1 1FK       0.196000
     24 H5          -3.3490    -2.9910    -0.0180 ha         1 1FK       0.150000
     25 H6          -1.8000    -4.8430     0.1950 hn         1 1FK       0.417800
     26 H7          -0.1190    -4.6560     0.1470 hn         1 1FK       0.417800
     27 H8           0.9280    -2.4230    -0.0200 ha         1 1FK       0.177000
     28 H9           0.1640     2.5970     0.0090 ha         1 1FK       0.167000
     29 H10          4.4920    -1.6970    -0.0300 h4         1 1FK       0.018600
     30 H11          5.8000     0.4510    -0.0280 ha         1 1FK       0.150000
     31 H12          4.4610     2.5820    -0.0150 h4         1 1FK       0.018600
@<TRIPOS>BOND
     1     1     2 2   
     2     2     3 1   
     3     2     4 1   
     4     3    20 1   
     5     3    21 1   
     6     3    22 1   
     7     4     5 1   
     8     4    13 2   
     9     5     6 1   
    10     5    11 1   
    11     6     7 2   
    12     6    23 1   
    13     7     8 1   
    14     7    24 1   
    15     8     9 1   
    16     8    10 2   
    17     9    25 1   
    18     9    26 1   
    19    10    11 1   
    20    10    27 1   
    21    11    12 2   
    22    12    13 1   
    23    12    14 1   
    24    13    28 1   
    25    14    15 ar  
    26    14    19 ar  
    27    15    16 ar  
    28    16    17 ar  
    29    16    29 1   
    30    17    18 ar  
    31    17    30 1   
    32    18    19 ar  
    33    18    31 1   
@<TRIPOS>SUBSTRUCTURE
     1 1FK         1 TEMP              0 ****  ****    0 ROOT
