@<TRIPOS>MOLECULE
1FK
   31    33     1     0     0
SMALL
No Charge or Current Charge


@<TRIPOS>ATOM
      1 O           -3.9260     1.8150     0.1310 o          1 1FK      -0.575100
      2 C1          -2.7550     2.1730     0.1410 c          1 1FK       0.618300
      3 C           -2.4240     3.6640     0.1970 c3         1 1FK      -0.186100
      4 C2          -1.6230     1.2100     0.1010 cc         1 1FK      -0.298300
      5 N3          -1.5720    -0.1810     0.0430 na         1 1FK       0.173100
      6 C13         -2.7040    -1.0070    -0.0290 cc         1 1FK      -0.057000
      7 C12         -2.4260    -2.3760    -0.1330 cd         1 1FK      -0.214000
      8 C11         -1.0920    -2.9260    -0.1780 cd         1 1FK       0.342000
      9 N2          -0.9700    -4.2760    -0.2870 nv         1 1FK      -1.092000
     10 C10         -0.0210    -2.0780    -0.1170 cc         1 1FK      -0.210000
     11 C9          -0.2970    -0.6910     0.0000 cc         1 1FK       0.026000
     12 C4           0.5470     0.3890     0.0700 cd         1 1FK      -0.296800
     13 C3          -0.2810     1.5570     0.1090 cd         1 1FK      -0.065000
     14 C5           2.0180     0.3850     0.0260 ca         1 1FK       0.251800
     15 N1           2.6640    -0.5670     0.7370 nb         1 1FK      -0.198500
     16 C8           4.0110    -0.5430     0.7070 ca         1 1FK       0.120400
     17 C7           4.7090     0.4320    -0.0230 ca         1 1FK      -0.245000
     18 C6           3.9510     1.3860    -0.7210 ca         1 1FK       0.120400
     19 N            2.6030     1.3670    -0.6960 nb         1 1FK      -0.198500
     20 H1          -3.3210     4.2940     0.2240 hc         1 1FK       0.061367
     21 H2          -1.7750     3.8540     1.0580 hc         1 1FK       0.061367
     22 H3          -1.7810     3.9200    -0.6520 hc         1 1FK       0.061367
     23 H4          -3.6890    -0.5670    -0.0000 h4         1 1FK       0.178000
     24 H5          -3.2680    -3.0570    -0.1880 ha         1 1FK       0.132000
     25 H6          -1.7890    -4.8660    -0.1540 hn         1 1FK       0.473000
     26 H7          -0.0590    -4.7120    -0.1490 hn         1 1FK       0.473000
     27 H8           0.9980    -2.4430    -0.1620 ha         1 1FK       0.159000
     28 H9           0.1090     2.5740     0.1440 ha         1 1FK       0.217000
     29 H10          4.5330    -1.3110     1.2750 h4         1 1FK       0.018600
     30 H11          5.7950     0.4500    -0.0450 ha         1 1FK       0.132000
     31 H12          4.4240     2.1740    -1.3060 h4         1 1FK       0.018600
@<TRIPOS>BOND
     1     1     2 2   
     2     2     3 1   
     3     2     4 1   
     4     3    20 1   
     5     3    21 1   
     6     3    22 1   
     7     4     5 1   
     8     4    13 2   
     9     5     6 1   
    10     5    11 1   
    11     6     7 2   
    12     6    23 1   
    13     7     8 1   
    14     7    24 1   
    15     8     9 1   
    16     8    10 2   
    17     9    25 1   
    18     9    26 1   
    19    10    11 1   
    20    10    27 1   
    21    11    12 2   
    22    12    13 1   
    23    12    14 1   
    24    13    28 1   
    25    14    15 ar  
    26    14    19 ar  
    27    15    16 ar  
    28    16    17 ar  
    29    16    29 1   
    30    17    18 ar  
    31    17    30 1   
    32    18    19 ar  
    33    18    31 1   
@<TRIPOS>SUBSTRUCTURE
     1 1FK         1 TEMP              0 ****  ****    0 ROOT
