@<TRIPOS>MOLECULE
1FL
   25    26     1     0     0
SMALL
bcc


@<TRIPOS>ATOM
      1 FAT          9.7400     2.1240   -15.8210 f          1 1FL      -0.124900
      2 CAN          9.6060     2.9870   -14.8050 ca         1 1FL       0.168900
      3 CAM         10.7280     3.2570   -14.0470 ca         1 1FL      -0.225000
      4 CAF         10.5850     4.1230   -12.9800 ca         1 1FL       0.135900
      5 FAE         11.6620     4.4010   -12.2340 f          1 1FL      -0.154900
      6 CAG          9.3730     4.7030   -12.6620 ca         1 1FL      -0.196000
      7 CAH          8.2750     4.4040   -13.4550 ca         1 1FL      -0.088000
      8 CAO          8.3570     3.5440   -14.5510 cp         1 1FL      -0.034000
      9 CAP          7.1680     3.2290   -15.3670 cp         1 1FL      -0.130000
     10 CAI          7.1810     3.3230   -16.7540 ca         1 1FL      -0.048000
     11 CAJ          6.0690     3.0650   -17.5520 ca         1 1FL      -0.164600
     12 CAC          6.2230     3.2220   -19.0660 c          1 1FL       0.929200
     13 OAD          7.3460     3.5930   -19.4620 o          1 1FL      -0.815300
     14 OAB          5.2350     2.9770   -19.7790 o          1 1FL      -0.815300
     15 CAQ          5.9740     2.8560   -14.7530 ca         1 1FL      -0.092000
     16 CAR          4.8520     2.5870   -15.5120 ca         1 1FL      -0.274000
     17 CAK          4.8810     2.6830   -16.9060 ca         1 1FL       0.172100
     18 OAL          3.7690     2.4120   -17.6120 oh         1 1FL      -0.438100
     19 HAM         11.6800     2.7960   -14.2760 ha         1 1FL       0.157000
     20 HAG          9.2860     5.3790   -11.8230 ha         1 1FL       0.140000
     21 HAH          7.3230     4.8640   -13.2250 ha         1 1FL       0.139000
     22 HAI          8.0820     3.6370   -17.2620 ha         1 1FL       0.162000
     23 HAQ          5.9180     2.7630   -13.6750 ha         1 1FL       0.104000
     24 HAR          3.9350     2.2880   -15.0150 ha         1 1FL       0.105000
     25 HAL          3.0600     2.1730   -17.0030 ho         1 1FL       0.387000
@<TRIPOS>BOND
     1     1     2 1   
     2     2     3 ar  
     3     2     8 ar  
     4     3     4 ar  
     5     3    19 1   
     6     4     5 1   
     7     4     6 ar  
     8     6     7 ar  
     9     6    20 1   
    10     7     8 ar  
    11     7    21 1   
    12     8     9 1   
    13     9    10 ar  
    14     9    15 ar  
    15    10    11 ar  
    16    10    22 1   
    17    11    12 1   
    18    11    17 ar  
    19    12    13 1   
    20    12    14 1   
    21    15    16 ar  
    22    15    23 1   
    23    16    17 ar  
    24    16    24 1   
    25    17    18 1   
    26    18    25 1   
@<TRIPOS>SUBSTRUCTURE
     1 1FL         1 TEMP              0 ****  ****    0 ROOT
