@<TRIPOS>MOLECULE
1FL
   25    26     1     0     0
SMALL
No Charge or Current Charge


@<TRIPOS>ATOM
      1 FAT          9.8220     2.1700   -15.9170 f          1 1FL      -0.160000
      2 CAN          9.6590     2.9900   -14.8550 ca         1 1FL       0.204000
      3 CAM         10.7800     3.2690   -14.0560 ca         1 1FL      -0.207000
      4 CAF         10.6460     4.0890   -12.9300 ca         1 1FL       0.171000
      5 FAE         11.7240     4.3560   -12.1620 f          1 1FL      -0.190000
      6 CAG          9.3980     4.6290   -12.5920 ca         1 1FL      -0.178000
      7 CAH          8.2740     4.3500   -13.3900 ca         1 1FL      -0.070000
      8 CAO          8.3800     3.5290   -14.5410 cp         1 1FL      -0.034000
      9 CAP          7.1660     3.2500   -15.3740 cp         1 1FL      -0.130000
     10 CAI          7.2110     3.3060   -16.7900 ca         1 1FL      -0.030000
     11 CAJ          6.0680     3.0470   -17.5740 ca         1 1FL      -0.164600
     12 CAC          6.1720     3.1180   -19.0690 c          1 1FL       0.718600
     13 OAD          6.5670     4.1660   -19.5620 o          1 1FL      -0.710000
     14 OAB          5.9680     2.1010   -19.7170 o          1 1FL      -0.710000
     15 CAQ          5.9280     2.9400   -14.7630 ca         1 1FL      -0.074000
     16 CAR          4.7840     2.6890   -15.5370 ca         1 1FL      -0.256000
     17 CAK          4.8500     2.7420   -16.9370 ca         1 1FL       0.172100
     18 OAL          3.7130     2.5210   -17.6540 oh         1 1FL      -0.477100
     19 HAM         11.7470     2.8450   -14.3090 ha         1 1FL       0.139000
     20 HAG          9.3020     5.2650   -11.7160 ha         1 1FL       0.122000
     21 HAH          7.3130     4.7840   -13.1220 ha         1 1FL       0.121000
     22 HAI          8.1440     3.5630   -17.2890 ha         1 1FL       0.144000
     23 HAQ          5.8570     2.8870   -13.6790 ha         1 1FL       0.086000
     24 HAR          3.8450     2.4570   -15.0400 ha         1 1FL       0.087000
     25 HAL          2.9910     2.3280   -17.0230 ho         1 1FL       0.426000
@<TRIPOS>BOND
     1     1     2 1   
     2     2     3 ar  
     3     2     8 ar  
     4     3     4 ar  
     5     3    19 1   
     6     4     5 1   
     7     4     6 ar  
     8     6     7 ar  
     9     6    20 1   
    10     7     8 ar  
    11     7    21 1   
    12     8     9 1   
    13     9    10 ar  
    14     9    15 ar  
    15    10    11 ar  
    16    10    22 1   
    17    11    12 1   
    18    11    17 ar  
    19    12    13 1   
    20    12    14 1   
    21    15    16 ar  
    22    15    23 1   
    23    16    17 ar  
    24    16    24 1   
    25    17    18 1   
    26    18    25 1   
@<TRIPOS>SUBSTRUCTURE
     1 1FL         1 TEMP              0 ****  ****    0 ROOT
