@<TRIPOS>MOLECULE
1FM
   48    49     1     0     0
SMALL
No Charge or Current Charge


@<TRIPOS>ATOM
      1 C2          -1.5940     0.8240     0.4880 ca         1 1FM      -0.260600
      2 C3          -1.4440    -0.5690     0.6850 ca         1 1FM       0.071200
      3 C11         -2.8340     1.3260     0.0490 ca         1 1FM       0.235100
      4 C14         -2.5450    -1.4170     0.4730 ca         1 1FM      -0.192000
      5 C15         -3.7850    -0.9070     0.0730 ca         1 1FM       0.203100
      6 O15         -0.2860     2.6480    -0.3180 os         1 1FM      -0.480100
      7 C16         -3.9260     0.4740    -0.1450 ca         1 1FM      -0.259000
      8 C17          0.3920    -2.2390     0.3880 c2         1 1FM      -0.206200
      9 C18          2.1480     2.7750    -0.7780 c3         1 1FM      -0.083200
     10 C23         -0.1320    -1.1800     1.0420 ce         1 1FM      -0.166200
     11 C24          2.6070    -3.0510    -0.5970 c3         1 1FM       0.145300
     12 C26         -0.4500     1.7610     0.7260 c          1 1FM       0.629700
     13 C31          0.8460     3.5500    -0.4170 c3         1 1FM       0.199300
     14 C34          1.7250    -2.9060     0.6740 c3         1 1FM      -0.078200
     15 O38          0.1980     1.7580     1.7600 o          1 1FM      -0.477000
     16 C39          3.4610    -1.8020    -0.9750 c3         1 1FM       0.078300
     17 C40          2.6500    -0.4640    -0.9610 c          1 1FM       0.587300
     18 O40          1.9550    -0.1530    -1.9210 o          1 1FM      -0.535100
     19 C41          2.8550     0.4590     0.2110 ce         1 1FM      -0.295200
     20 C42          2.6730     1.8060     0.2750 c2         1 1FM      -0.114200
     21 O42          3.5010    -4.1680    -0.4240 oh         1 1FM      -0.678000
     22 O44          4.6360    -1.7890    -0.1250 oh         1 1FM      -0.659000
     23 O46         -2.9990     2.6520    -0.2070 oh         1 1FM      -0.539100
     24 O48         -4.8220    -1.7980    -0.1080 os         1 1FM      -0.336100
     25 C59         -6.1340    -1.3760    -0.5220 c3         1 1FM       0.146900
     26 C62          0.9310     4.4930     0.8080 c3         1 1FM      -0.121100
     27 H14         -2.4390    -2.4880     0.6220 ha         1 1FM       0.134000
     28 H16         -4.8670     0.9020    -0.4730 ha         1 1FM       0.136000
     29 H17         -0.1610    -2.6910    -0.4390 ha         1 1FM       0.174000
     30 H18          1.9860     2.2820    -1.7400 hc         1 1FM       0.072200
     31 H18A         2.9270     3.5200    -0.9780 hc         1 1FM       0.072200
     32 H23          0.4100    -0.7130     1.8650 ha         1 1FM       0.206000
     33 H24          1.9370    -3.2580    -1.4450 h1         1 1FM       0.059700
     34 H31          0.6550     4.2090    -1.2750 h1         1 1FM       0.067700
     35 H34          2.2800    -2.3690     1.4530 hc         1 1FM       0.058700
     36 H34A         1.5220    -3.9030     1.0860 hc         1 1FM       0.058700
     37 H39          3.7820    -1.9380    -2.0160 h1         1 1FM       0.062700
     38 H41          3.2940    -0.0300     1.0780 ha         1 1FM       0.206000
     39 H42          2.9380     2.3110     1.2060 ha         1 1FM       0.173000
     40 HO42         2.9500    -4.9830    -0.4020 ho         1 1FM       0.453000
     41 HO44         4.7830    -2.7470     0.0690 ho         1 1FM       0.467000
     42 HO46        -2.0970     3.0240    -0.3450 ho         1 1FM       0.490000
     43 H59         -6.0950    -0.8860    -1.5030 h1         1 1FM       0.045033
     44 H59A        -6.8040    -2.2410    -0.6000 h1         1 1FM       0.045033
     45 H59B        -6.5660    -0.6760     0.2050 h1         1 1FM       0.045033
     46 H62          1.3380     3.9960     1.6940 hc         1 1FM       0.052367
     47 H62A         1.5870     5.3410     0.5800 hc         1 1FM       0.052367
     48 H62B        -0.0600     4.8930     1.0560 hc         1 1FM       0.052367
@<TRIPOS>BOND
     1     1     2 ar  
     2     1     3 ar  
     3     1    12 1   
     4     2     4 ar  
     5     2    10 1   
     6     3     7 ar  
     7     3    23 1   
     8     4     5 ar  
     9     4    27 1   
    10     5     7 ar  
    11     5    24 1   
    12     6    12 1   
    13     6    13 1   
    14     7    28 1   
    15     8    10 2   
    16     8    14 1   
    17     8    29 1   
    18     9    13 1   
    19     9    20 1   
    20     9    30 1   
    21     9    31 1   
    22    10    32 1   
    23    11    14 1   
    24    11    16 1   
    25    11    21 1   
    26    11    33 1   
    27    12    15 2   
    28    13    26 1   
    29    13    34 1   
    30    14    35 1   
    31    14    36 1   
    32    16    17 1   
    33    16    22 1   
    34    16    37 1   
    35    17    18 2   
    36    17    19 1   
    37    19    20 2   
    38    19    38 1   
    39    20    39 1   
    40    21    40 1   
    41    22    41 1   
    42    23    42 1   
    43    24    25 1   
    44    25    43 1   
    45    25    44 1   
    46    25    45 1   
    47    26    46 1   
    48    26    47 1   
    49    26    48 1   
@<TRIPOS>SUBSTRUCTURE
     1 1FM         1 TEMP              0 ****  ****    0 ROOT
