@<TRIPOS>MOLECULE
1FM
   48    49     1     0     0
SMALL
abcg2


@<TRIPOS>ATOM
      1 C2          -1.6030     0.7820     0.4180 ca         1 1FM      -0.260600
      2 C3          -1.4770    -0.6040     0.6550 ca         1 1FM       0.071200
      3 C11         -2.8340     1.2840    -0.0230 ca         1 1FM       0.235100
      4 C14         -2.5740    -1.4300     0.4990 ca         1 1FM      -0.192000
      5 C15         -3.8140    -0.9060     0.1170 ca         1 1FM       0.203100
      6 O15         -0.3140     2.5700    -0.3400 os         1 1FM      -0.480100
      7 C16         -3.9440     0.4480    -0.1460 ca         1 1FM      -0.259000
      8 C17          0.3240    -2.2150     0.2430 c2         1 1FM      -0.206200
      9 C18          2.0920     2.7010    -0.8140 c3         1 1FM      -0.083200
     10 C23         -0.1750    -1.2240     0.9790 ce         1 1FM      -0.166200
     11 C24          2.5570    -2.9300    -0.6980 c3         1 1FM       0.145300
     12 C26         -0.4380     1.6670     0.6350 c          1 1FM       0.629700
     13 C31          0.8240     3.4640    -0.4150 c3         1 1FM       0.199300
     14 C34          1.6030    -2.9410     0.5070 c3         1 1FM      -0.078200
     15 O38          0.3080     1.5890     1.5760 o          1 1FM      -0.477000
     16 C39          3.5400    -1.7500    -0.6970 c3         1 1FM       0.078300
     17 C40          2.8310    -0.4020    -0.7970 c          1 1FM       0.587300
     18 O40          2.1180    -0.2100    -1.7640 o          1 1FM      -0.535100
     19 C41          3.0900     0.5890     0.2550 ce         1 1FM      -0.295200
     20 C42          2.7420     1.8840     0.2510 c2         1 1FM      -0.114200
     21 O42          3.3940    -4.0690    -0.7140 oh         1 1FM      -0.678000
     22 O44          4.3860    -1.7880     0.4200 oh         1 1FM      -0.659000
     23 O46         -3.0490     2.5750    -0.3180 oh         1 1FM      -0.539100
     24 O48         -4.8180    -1.7870     0.0210 os         1 1FM      -0.336100
     25 C59         -6.0950    -1.3270    -0.3820 c3         1 1FM       0.146900
     26 C62          0.9540     4.3940     0.7770 c3         1 1FM      -0.121100
     27 H14         -2.4800    -2.4920     0.6820 ha         1 1FM       0.134000
     28 H16         -4.8810     0.8880    -0.4590 ha         1 1FM       0.136000
     29 H17         -0.2320    -2.5520    -0.6290 ha         1 1FM       0.174000
     30 H18          1.8850     2.1190    -1.7070 hc         1 1FM       0.072200
     31 H18A         2.8110     3.4780    -1.1000 hc         1 1FM       0.072200
     32 H23          0.3880    -0.8440     1.8210 ha         1 1FM       0.206000
     33 H24          1.9650    -2.8770    -1.6210 h1         1 1FM       0.059700
     34 H31          0.5630     4.0740    -1.2790 h1         1 1FM       0.067700
     35 H34          2.0990    -2.5610     1.4030 hc         1 1FM       0.058700
     36 H34A         1.3420    -3.9840     0.7190 hc         1 1FM       0.058700
     37 H39          4.1280    -1.8290    -1.6270 h1         1 1FM       0.062700
     38 H41          3.6180     0.2320     1.1270 ha         1 1FM       0.206000
     39 H42          3.0330     2.4440     1.1340 ha         1 1FM       0.173000
     40 HO42         2.8500    -4.8590    -0.6320 ho         1 1FM       0.453000
     41 HO44         4.7710    -2.6700     0.4670 ho         1 1FM       0.467000
     42 HO46        -2.2110     3.0470    -0.4220 ho         1 1FM       0.490000
     43 H59         -6.0690    -0.8840    -1.3810 h1         1 1FM       0.045033
     44 H59A        -6.7440    -2.1980    -0.4010 h1         1 1FM       0.045033
     45 H59B        -6.5040    -0.5960     0.3200 h1         1 1FM       0.045033
     46 H62          1.3100     3.9080     1.6810 hc         1 1FM       0.052367
     47 H62A         1.6600     5.1830     0.5160 hc         1 1FM       0.052367
     48 H62B        -0.0010     4.8720     0.9940 hc         1 1FM       0.052367
@<TRIPOS>BOND
     1     1     2 ar  
     2     1     3 ar  
     3     1    12 1   
     4     2     4 ar  
     5     2    10 1   
     6     3     7 ar  
     7     3    23 1   
     8     4     5 ar  
     9     4    27 1   
    10     5     7 ar  
    11     5    24 1   
    12     6    12 1   
    13     6    13 1   
    14     7    28 1   
    15     8    10 2   
    16     8    14 1   
    17     8    29 1   
    18     9    13 1   
    19     9    20 1   
    20     9    30 1   
    21     9    31 1   
    22    10    32 1   
    23    11    14 1   
    24    11    16 1   
    25    11    21 1   
    26    11    33 1   
    27    12    15 2   
    28    13    26 1   
    29    13    34 1   
    30    14    35 1   
    31    14    36 1   
    32    16    17 1   
    33    16    22 1   
    34    16    37 1   
    35    17    18 2   
    36    17    19 1   
    37    19    20 2   
    38    19    38 1   
    39    20    39 1   
    40    21    40 1   
    41    22    41 1   
    42    23    42 1   
    43    24    25 1   
    44    25    43 1   
    45    25    44 1   
    46    25    45 1   
    47    26    46 1   
    48    26    47 1   
    49    26    48 1   
@<TRIPOS>SUBSTRUCTURE
     1 1FM         1 TEMP              0 ****  ****    0 ROOT
