@<TRIPOS>MOLECULE
1FN
   50    54     1     0     0
SMALL
abcg2


@<TRIPOS>ATOM
      1 C13          2.3340    -0.6240     0.6690 ca         1 1FN       0.194000
      2 C18         -2.9920     2.2030     0.4740 cc         1 1FN      -0.313400
      3 C17         -1.5140     2.3440     0.6430 c          1 1FN       0.635300
      4 C20         -3.6280     0.9370     0.1940 c          1 1FN       0.569200
      5 C22         -5.7420     2.1150     0.2010 cc         1 1FN      -0.000400
      6 C23         -5.1480     3.3100     0.4570 cd         1 1FN      -0.309000
      7 C24         -3.7530     3.3370     0.5950 cd         1 1FN      -0.010000
      8 C11          0.5630     0.9950     0.6550 ca         1 1FN       0.025000
      9 C12          0.9970    -0.3320     0.5550 ca         1 1FN      -0.209000
     10 C34         -5.9650    -1.1320     0.8260 ca         1 1FN      -0.061500
     11 C27          7.4490    -0.9960     1.3040 cc         1 1FN      -0.203200
     12 C33         -6.6450    -2.3090     0.5600 ca         1 1FN      -0.146500
     13 C1           6.6460    -0.6810     0.1670 ca         1 1FN      -0.163800
     14 C2           7.4260    -0.9330    -0.9810 ca         1 1FN       0.387500
     15 N3           7.0560    -0.7730    -2.2460 nb         1 1FN      -0.705000
     16 C4           5.8210    -0.3290    -2.4020 ca         1 1FN       0.388900
     17 C5           4.9330    -0.0360    -1.3600 ca         1 1FN      -0.278000
     18 C6           5.3500    -0.2170    -0.0510 ca         1 1FN       0.219100
     19 C8           3.2810     0.3670     0.8820 ca         1 1FN       0.012100
     20 C9           2.8520     1.6760     0.9760 ca         1 1FN      -0.061000
     21 C10          1.5070     2.0020     0.8690 ca         1 1FN      -0.152000
     22 F14          2.7440    -1.8930     0.5730 f          1 1FN      -0.161000
     23 N15         -0.8070     1.1950     0.5280 ns         1 1FN      -0.148000
     24 O19         -1.0160     3.4350     0.8730 o          1 1FN      -0.599100
     25 N21         -5.0130     0.9820     0.0760 n          1 1FN      -0.176200
     26 O25         -3.0570    -0.1460     0.0550 o          1 1FN      -0.568000
     27 C26         -5.6960    -0.2460    -0.2050 ca         1 1FN      -0.012400
     28 C28          8.6520    -1.4140     0.8140 cd         1 1FN      -0.174100
     29 N29          8.6380    -1.3750    -0.5540 na         1 1FN      -0.324400
     30 C30         -6.0950    -0.5210    -1.5030 ca         1 1FN      -0.061500
     31 C31         -6.7800    -1.6950    -1.7780 ca         1 1FN      -0.146500
     32 C32         -7.0400    -2.5670    -0.7390 ca         1 1FN       0.190000
     33 F35         -7.7010    -3.7020    -0.9990 f          1 1FN      -0.169000
     34 H22         -6.8110     2.0050     0.0880 h4         1 1FN       0.213000
     35 H23         -5.7450     4.2020     0.5560 ha         1 1FN       0.212000
     36 H24         -3.2620     4.2770     0.8060 ha         1 1FN       0.218000
     37 H12          0.2920    -1.1380     0.3940 ha         1 1FN       0.140000
     38 H27          7.1760    -0.9250     2.3440 ha         1 1FN       0.214000
     39 H33         -6.8680    -3.0100     1.3530 ha         1 1FN       0.141500
     40 H4           5.4840    -0.1850    -3.4230 h4         1 1FN       0.016100
     41 H5           3.9460     0.3310    -1.6050 ha         1 1FN       0.132000
     42 H9           3.5800     2.4600     1.1410 ha         1 1FN       0.133000
     43 H10          1.2120     3.0340     0.9500 ha         1 1FN       0.155000
     44 HN15        -1.3770     0.3690     0.3380 hn         1 1FN       0.199000
     45 H28          9.5320    -1.7420     1.3410 h4         1 1FN       0.214000
     46 HN29         9.4020    -1.6410    -1.1530 hn         1 1FN       0.359000
     47 H30         -5.8760     0.1770    -2.3010 ha         1 1FN       0.132000
     48 H31         -7.1040    -1.9240    -2.7850 ha         1 1FN       0.141500
     49 O7           4.6000     0.0370     1.0460 os         1 1FN      -0.221200
     50 H34         -5.6540    -0.9040     1.8370 ha         1 1FN       0.132000
@<TRIPOS>BOND
     1     1     9 ar  
     2     1    19 ar  
     3     1    22 1   
     4     2     3 1   
     5     2     4 1   
     6     2     7 2   
     7     3    23 1   
     8     3    24 2   
     9     4    25 1   
    10     4    26 2   
    11     5     6 2   
    12     5    25 1   
    13     5    34 1   
    14     6     7 1   
    15     6    35 1   
    16     7    36 1   
    17     8     9 ar  
    18     8    21 ar  
    19     8    23 1   
    20     9    37 1   
    21    10    12 ar  
    22    10    27 ar  
    23    10    50 1   
    24    11    13 1   
    25    11    28 2   
    26    11    38 1   
    27    12    32 ar  
    28    12    39 1   
    29    13    14 ar  
    30    13    18 ar  
    31    14    15 ar  
    32    14    29 1   
    33    15    16 ar  
    34    16    17 ar  
    35    16    40 1   
    36    17    18 ar  
    37    17    41 1   
    38    18    49 1   
    39    19    20 ar  
    40    19    49 1   
    41    20    21 ar  
    42    20    42 1   
    43    21    43 1   
    44    23    44 1   
    45    25    27 1   
    46    27    30 ar  
    47    28    29 1   
    48    28    45 1   
    49    29    46 1   
    50    30    31 ar  
    51    30    47 1   
    52    31    32 ar  
    53    31    48 1   
    54    32    33 1   
@<TRIPOS>SUBSTRUCTURE
     1 1FN         1 TEMP              0 ****  ****    0 ROOT
