@<TRIPOS>MOLECULE
1FN
   50    54     1     0     0
SMALL
No Charge or Current Charge


@<TRIPOS>ATOM
      1 C13          2.5200    -0.3500     0.4490 ca         1 1FN       0.194000
      2 C18         -3.0430     2.3060     0.4030 cc         1 1FN      -0.313400
      3 C17         -1.5700     2.5230     0.5600 c          1 1FN       0.635300
      4 C20         -3.6300     0.9550     0.1590 c          1 1FN       0.569200
      5 C22         -5.8190     2.0520     0.1440 cc         1 1FN      -0.000400
      6 C23         -5.2680     3.2950     0.3360 cd         1 1FN      -0.309000
      7 C24         -3.8510     3.4320     0.4790 cd         1 1FN      -0.010000
      8 C11          0.6440     1.2070     0.6180 ca         1 1FN       0.025000
      9 C12          1.1460    -0.0790     0.3450 ca         1 1FN      -0.209000
     10 C34         -5.4010    -1.5440     0.4510 ca         1 1FN      -0.061500
     11 C27          7.3420    -1.0880     1.4030 cc         1 1FN      -0.203200
     12 C33         -6.1160    -2.7340     0.2240 ca         1 1FN      -0.146500
     13 C1           6.7170    -0.7470     0.1590 ca         1 1FN      -0.163800
     14 C2           7.4900    -1.2310    -0.8670 ca         1 1FN       0.387500
     15 N3           7.1670    -1.0700    -2.1630 nb         1 1FN      -0.705000
     16 C4           6.0240    -0.3940    -2.4380 ca         1 1FN       0.388900
     17 C5           5.1810     0.1310    -1.4420 ca         1 1FN      -0.278000
     18 C6           5.5300    -0.0560    -0.0940 ca         1 1FN       0.219100
     19 C8           3.4170     0.6700     0.8290 ca         1 1FN       0.012100
     20 C9           2.9230     1.9510     1.1210 ca         1 1FN      -0.061000
     21 C10          1.5460     2.2210     1.0150 ca         1 1FN      -0.152000
     22 F14          2.9650    -1.6020     0.1950 f          1 1FN      -0.161000
     23 N15         -0.7590     1.3980     0.4920 ns         1 1FN      -0.148000
     24 O19         -1.1070     3.6440     0.7400 o          1 1FN      -0.599100
     25 N21         -5.0490     0.8890     0.0660 n          1 1FN      -0.176200
     26 O25         -2.9480    -0.0510     0.0140 o          1 1FN      -0.568000
     27 C26         -5.7220    -0.3590    -0.2540 ca         1 1FN      -0.012400
     28 C28          8.4990    -1.7810     1.0850 cd         1 1FN      -0.174100
     29 N29          8.5910    -1.8700    -0.3280 na         1 1FN      -0.324400
     30 C30         -6.8360    -0.3830    -1.1290 ca         1 1FN      -0.061500
     31 C31         -7.5480    -1.5740    -1.3560 ca         1 1FN      -0.146500
     32 C32         -7.1820    -2.7480    -0.6840 ca         1 1FN       0.190000
     33 F35         -7.8700    -3.8900    -0.8990 f          1 1FN      -0.169000
     34 H22         -6.8870     1.8690     0.0770 h4         1 1FN       0.213000
     35 H23         -5.9100     4.1710     0.4000 ha         1 1FN       0.212000
     36 H24         -3.4310     4.4240     0.6470 ha         1 1FN       0.218000
     37 H12          0.4710    -0.8790     0.0500 ha         1 1FN       0.140000
     38 H27          6.9910    -0.8550     2.4070 ha         1 1FN       0.214000
     39 H33         -5.8530    -3.6410     0.7620 ha         1 1FN       0.141500
     40 H4           5.7780    -0.2670    -3.4920 h4         1 1FN       0.016100
     41 H5           4.2830     0.6710    -1.7240 ha         1 1FN       0.132000
     42 H9           3.6090     2.7380     1.4280 ha         1 1FN       0.133000
     43 H10          1.2030     3.2230     1.2540 ha         1 1FN       0.155000
     44 HN15        -1.2700     0.5430     0.3180 hn         1 1FN       0.199000
     45 H28          9.2500    -2.2100     1.7470 h4         1 1FN       0.214000
     46 HN29         9.3240    -2.3180    -0.8660 hn         1 1FN       0.359000
     47 H30         -7.1330     0.5120    -1.6710 ha         1 1FN       0.132000
     48 H31         -8.3850    -1.5880    -2.0500 ha         1 1FN       0.141500
     49 O7           4.7690     0.4330     0.9460 os         1 1FN      -0.221200
     50 H34         -4.6050    -1.5470     1.1910 ha         1 1FN       0.132000
@<TRIPOS>BOND
     1     1     9 ar  
     2     1    19 ar  
     3     1    22 1   
     4     2     3 1   
     5     2     4 1   
     6     2     7 2   
     7     3    23 1   
     8     3    24 2   
     9     4    25 1   
    10     4    26 2   
    11     5     6 2   
    12     5    25 1   
    13     5    34 1   
    14     6     7 1   
    15     6    35 1   
    16     7    36 1   
    17     8     9 ar  
    18     8    21 ar  
    19     8    23 1   
    20     9    37 1   
    21    10    12 ar  
    22    10    27 ar  
    23    10    50 1   
    24    11    13 1   
    25    11    28 2   
    26    11    38 1   
    27    12    32 ar  
    28    12    39 1   
    29    13    14 ar  
    30    13    18 ar  
    31    14    15 ar  
    32    14    29 1   
    33    15    16 ar  
    34    16    17 ar  
    35    16    40 1   
    36    17    18 ar  
    37    17    41 1   
    38    18    49 1   
    39    19    20 ar  
    40    19    49 1   
    41    20    21 ar  
    42    20    42 1   
    43    21    43 1   
    44    23    44 1   
    45    25    27 1   
    46    27    30 ar  
    47    28    29 1   
    48    28    45 1   
    49    29    46 1   
    50    30    31 ar  
    51    30    47 1   
    52    31    32 ar  
    53    31    48 1   
    54    32    33 1   
@<TRIPOS>SUBSTRUCTURE
     1 1FN         1 TEMP              0 ****  ****    0 ROOT
