@<TRIPOS>MOLECULE
1FO
   35    36     1     0     0
SMALL
No Charge or Current Charge


@<TRIPOS>ATOM
      1 OAA         -4.1800    -1.8530     0.5960 o          1 1FO      -0.658100
      2 OAB         -6.9060     2.3280    -0.5780 o          1 1FO      -0.682500
      3 OAC          3.8400    -2.6360     0.0620 o          1 1FO      -0.534100
      4 OAD         -8.4980     0.9810    -0.0620 o          1 1FO      -0.682500
      5 OAE         -6.6900    -1.0930     0.4950 oh         1 1FO      -0.510100
      6 CAG         -2.4630    -0.3040     0.0080 ce         1 1FO      -0.255200
      7 CAH         -1.3750    -1.1040     0.2010 cf         1 1FO      -0.119200
      8 CAI         -4.9160     0.2920    -0.0440 ce         1 1FO      -0.533200
      9 CAJ          7.1860    -0.0710    -0.7450 ca         1 1FO      -0.098000
     10 CAK          7.1360     1.1980    -0.1460 ca         1 1FO      -0.142000
     11 CAL          6.0580    -0.9100    -0.7110 ca         1 1FO      -0.085000
     12 CAM          1.9460     0.4250    -0.4970 cd         1 1FO      -0.144000
     13 CAN          4.8320     0.7850     0.5290 ca         1 1FO      -0.123000
     14 CAO          1.1150    -1.5530     0.1930 cc         1 1FO      -0.100000
     15 NAP          0.5480     0.4890    -0.4160 na         1 1FO      -0.080000
     16 CAQ         -3.8740    -0.7280     0.2220 c          1 1FO       0.573500
     17 CAR         -7.3050     1.2280    -0.2070 c          1 1FO       0.710200
     18 CAS         -6.2680     0.1200     0.0870 cf         1 1FO       0.157900
     19 CAT          3.6700    -1.4270    -0.0570 c          1 1FO       0.623300
     20 CAU          5.9610     1.6180     0.4930 ca         1 1FO       0.156000
     21 CAV          0.0290    -0.7430     0.0080 cd         1 1FO      -0.148800
     22 CAW          4.8590    -0.4870    -0.0920 ca         1 1FO      -0.126600
     23 CAX          2.2990    -0.8370    -0.0870 cc         1 1FO      -0.264600
     24 HAG         -2.3180     0.7200    -0.3250 ha         1 1FO       0.168000
     25 HAH         -1.5470    -2.1310     0.5370 ha         1 1FO       0.208000
     26 HAI         -4.5520     1.2640    -0.3720 ha         1 1FO       0.209000
     27 HAJ          8.0980    -0.4070    -1.2340 ha         1 1FO       0.116000
     28 HAK          8.0060     1.8500    -0.1680 ha         1 1FO       0.127000
     29 HAL          6.1120    -1.8920    -1.1780 ha         1 1FO       0.132000
     30 HAM          2.5460     1.2570    -0.8510 h4         1 1FO       0.148000
     31 HAN          3.9500     1.1250     1.0650 ha         1 1FO       0.142000
     32 HAO          1.0870    -2.5930     0.5090 ha         1 1FO       0.149000
     33 HNAP        -0.0090     1.3050    -0.6510 hn         1 1FO       0.356000
     34 H12         -5.8450    -1.6030     0.6100 ho         1 1FO       0.491000
     35 FAF          5.9190     2.8300     1.0890 f          1 1FO      -0.182000
@<TRIPOS>BOND
     1     1    16 2   
     2     2    17 1   
     3     3    19 2   
     4     4    17 1   
     5     5    18 1   
     6     5    34 1   
     7     6     7 2   
     8     6    16 1   
     9     6    24 1   
    10     7    21 1   
    11     7    25 1   
    12     8    16 1   
    13     8    18 2   
    14     8    26 1   
    15     9    10 ar  
    16     9    11 ar  
    17     9    27 1   
    18    10    20 ar  
    19    10    28 1   
    20    11    22 ar  
    21    11    29 1   
    22    12    15 1   
    23    12    23 2   
    24    12    30 1   
    25    13    20 ar  
    26    13    22 ar  
    27    13    31 1   
    28    14    21 2   
    29    14    23 1   
    30    14    32 1   
    31    15    21 1   
    32    15    33 1   
    33    17    18 1   
    34    19    22 1   
    35    19    23 1   
    36    20    35 1   
@<TRIPOS>SUBSTRUCTURE
     1 1FO         1 TEMP              0 ****  ****    0 ROOT
