@<TRIPOS>MOLECULE
1FO
   35    36     1     0     0
SMALL
abcg2


@<TRIPOS>ATOM
      1 OAA         -4.0780    -1.7470     0.5270 o          1 1FO      -0.658100
      2 OAB         -6.8060     2.2770    -0.5700 o          1 1FO      -0.682500
      3 OAC          3.8530    -2.6210     0.1750 o          1 1FO      -0.534100
      4 OAD         -8.3530     0.7930     0.0730 o          1 1FO      -0.682500
      5 OAE         -6.5180    -1.0480     0.4870 oh         1 1FO      -0.510100
      6 CAG         -2.3750    -0.2150    -0.0670 ce         1 1FO      -0.255200
      7 CAH         -1.3620    -1.0670     0.1640 cf         1 1FO      -0.119200
      8 CAI         -4.7740     0.4020    -0.1070 ce         1 1FO      -0.533200
      9 CAJ          7.0260    -0.0190    -0.8130 ca         1 1FO      -0.098000
     10 CAK          7.0100     1.2120    -0.1700 ca         1 1FO      -0.142000
     11 CAL          5.9330    -0.8690    -0.7390 ca         1 1FO      -0.085000
     12 CAM          1.8860     0.3490    -0.4890 cd         1 1FO      -0.144000
     13 CAN          4.7640     0.7540     0.6090 ca         1 1FO      -0.123000
     14 CAO          1.1040    -1.6220     0.2600 cc         1 1FO      -0.100000
     15 NAP          0.5500     0.3950    -0.4620 na         1 1FO      -0.080000
     16 CAQ         -3.7730    -0.5990     0.1430 c          1 1FO       0.573500
     17 CAR         -7.1980     1.1710    -0.1640 c          1 1FO       0.710200
     18 CAS         -6.0970     0.1280     0.0800 cf         1 1FO       0.157900
     19 CAT          3.6430    -1.4270     0.0500 c          1 1FO       0.623300
     20 CAU          5.8770     1.5680     0.5340 ca         1 1FO       0.156000
     21 CAV          0.0350    -0.7950    -0.0010 cd         1 1FO      -0.148800
     22 CAW          4.7920    -0.4780    -0.0400 ca         1 1FO      -0.126600
     23 CAX          2.2870    -0.9020    -0.0360 cc         1 1FO      -0.264600
     24 HAG         -2.1990     0.7990    -0.4080 ha         1 1FO       0.168000
     25 HAH         -1.5890    -2.0680     0.5140 ha         1 1FO       0.208000
     26 HAI         -4.4820     1.3850    -0.4430 ha         1 1FO       0.209000
     27 HAJ          7.9030    -0.3160    -1.3720 ha         1 1FO       0.116000
     28 HAK          7.8610     1.8780    -0.2120 ha         1 1FO       0.127000
     29 HAL          5.9600    -1.8270    -1.2390 ha         1 1FO       0.132000
     30 HAM          2.4630     1.1850    -0.8500 h4         1 1FO       0.148000
     31 HAN          3.9060     1.0680     1.1890 ha         1 1FO       0.142000
     32 HAO          1.0370    -2.6300     0.6400 ha         1 1FO       0.149000
     33 HNAP         0.0110     1.1940    -0.7580 hn         1 1FO       0.356000
     34 H12         -5.7030    -1.6110     0.6050 ho         1 1FO       0.491000
     35 FAF          5.8530     2.7470     1.1740 f          1 1FO      -0.182000
@<TRIPOS>BOND
     1     1    16 2   
     2     2    17 1   
     3     3    19 2   
     4     4    17 1   
     5     5    18 1   
     6     5    34 1   
     7     6     7 2   
     8     6    16 1   
     9     6    24 1   
    10     7    21 1   
    11     7    25 1   
    12     8    16 1   
    13     8    18 2   
    14     8    26 1   
    15     9    10 ar  
    16     9    11 ar  
    17     9    27 1   
    18    10    20 ar  
    19    10    28 1   
    20    11    22 ar  
    21    11    29 1   
    22    12    15 1   
    23    12    23 2   
    24    12    30 1   
    25    13    20 ar  
    26    13    22 ar  
    27    13    31 1   
    28    14    21 2   
    29    14    23 1   
    30    14    32 1   
    31    15    21 1   
    32    15    33 1   
    33    17    18 1   
    34    19    22 1   
    35    19    23 1   
    36    20    35 1   
@<TRIPOS>SUBSTRUCTURE
     1 1FO         1 TEMP              0 ****  ****    0 ROOT
