@<TRIPOS>MOLECULE
1FP
   18    18     1     0     0
SMALL
No Charge or Current Charge


@<TRIPOS>ATOM
      1 OAA         -2.9120    -0.2520     0.2680 o          1 1FP      -0.605100
      2 CAB         -2.0360     0.5990     0.1490 c          1 1FP       0.604900
      3 CAC          1.7690     0.9670    -0.3730 c6         1 1FP       0.137800
      4 CAD          1.2550    -1.4070    -0.2190 c6         1 1FP       0.137800
      5 CAE          0.3470     1.3620     0.1190 c6         1 1FP       0.097000
      6 CAF         -0.1920    -1.1180     0.2740 c6         1 1FP       0.097000
      7 NAG          2.2080    -0.3410     0.1670 n7         1 1FP      -0.861400
      8 NAH         -0.6750     0.2770     0.0280 n          1 1FP      -0.422800
      9 HAB         -2.2300     1.6880     0.1240 h5         1 1FP       0.004200
     10 HACA         2.4860     1.7490    -0.0830 h1         1 1FP       0.039200
     11 HAD          1.5920    -2.3720     0.1850 h1         1 1FP       0.039200
     12 HADA         1.2430    -1.4980    -1.3160 h1         1 1FP       0.039200
     13 HAE          0.4190     1.6750     1.1700 h1         1 1FP       0.059200
     14 HAEA         0.0060     2.2370    -0.4530 h1         1 1FP       0.059200
     15 HAF         -0.8740    -1.8350    -0.2030 h1         1 1FP       0.059200
     16 HAFA        -0.2340    -1.3070     1.3560 h1         1 1FP       0.059200
     17 HNAG         3.1350    -0.5670    -0.2200 hn         1 1FP       0.416000
     18 HAC          1.7640     0.9190    -1.4720 h1         1 1FP       0.039200
@<TRIPOS>BOND
     1     1     2 2   
     2     2     8 1   
     3     2     9 1   
     4     3     5 1   
     5     3     7 1   
     6     3    10 1   
     7     3    18 1   
     8     4     6 1   
     9     4     7 1   
    10     4    11 1   
    11     4    12 1   
    12     5     8 1   
    13     5    13 1   
    14     5    14 1   
    15     6     8 1   
    16     6    15 1   
    17     6    16 1   
    18     7    17 1   
@<TRIPOS>SUBSTRUCTURE
     1 1FP         1 TEMP              0 ****  ****    0 ROOT
