@<TRIPOS>MOLECULE
1FP
   18    18     1     0     0
SMALL
bcc


@<TRIPOS>ATOM
      1 OAA         -2.7130    -0.3090    -0.3920 o          1 1FP      -0.605100
      2 CAB         -1.8300     0.5160    -0.2210 c          1 1FP       0.671900
      3 CAC          1.6450     0.9730    -0.4020 c6         1 1FP       0.137800
      4 CAD          1.1400    -1.3630    -0.2470 c6         1 1FP       0.137800
      5 CAE          0.3920     1.3170     0.3860 c6         1 1FP       0.097000
      6 CAF         -0.1250    -1.0690     0.5430 c6         1 1FP       0.097000
      7 NAG          2.1250    -0.3300     0.0160 n7         1 1FP      -0.806200
      8 NAH         -0.5960     0.2680     0.2340 n          1 1FP      -0.489800
      9 HAB         -1.9830     1.5860    -0.4330 h5         1 1FP       0.004200
     10 HACA         2.4100     1.7240    -0.2000 h1         1 1FP       0.039200
     11 HAD          1.5380    -2.3300     0.0650 h1         1 1FP       0.039200
     12 HADA         0.8780    -1.4440    -1.3140 h1         1 1FP       0.039200
     13 HAE          0.6440     1.4290     1.4450 h1         1 1FP       0.059200
     14 HAEA        -0.0290     2.2630     0.0430 h1         1 1FP       0.059200
     15 HAF         -0.9040    -1.7900     0.3060 h1         1 1FP       0.059200
     16 HAFA         0.0840    -1.1380     1.6150 h1         1 1FP       0.059200
     17 HNAG         2.9860    -0.5490    -0.4660 hn         1 1FP       0.360800
     18 HAC          1.4110     1.0220    -1.4770 h1         1 1FP       0.039200
@<TRIPOS>BOND
     1     1     2 2   
     2     2     8 1   
     3     2     9 1   
     4     3     5 1   
     5     3     7 1   
     6     3    10 1   
     7     3    18 1   
     8     4     6 1   
     9     4     7 1   
    10     4    11 1   
    11     4    12 1   
    12     5     8 1   
    13     5    13 1   
    14     5    14 1   
    15     6     8 1   
    16     6    15 1   
    17     6    16 1   
    18     7    17 1   
@<TRIPOS>SUBSTRUCTURE
     1 1FP         1 TEMP              0 ****  ****    0 ROOT
