@<TRIPOS>MOLECULE
1FQ
   35    36     1     0     0
SMALL
No Charge or Current Charge


@<TRIPOS>ATOM
      1 OAA          4.3030    -1.8540     0.3780 o          1 1FQ      -0.658100
      2 OAB          8.6230     1.0030    -0.1530 o          1 1FQ      -0.682500
      3 OAC         -3.7310    -2.5630    -0.0480 o          1 1FQ      -0.537100
      4 OAD          7.0280     2.3930    -0.5350 o          1 1FQ      -0.682500
      5 OAE          6.8140    -1.0990     0.2830 oh         1 1FQ      -0.509100
      6 CAG          2.5830    -0.2590    -0.0570 ce         1 1FQ      -0.255200
      7 CAH          1.4940    -1.0670     0.0980 cf         1 1FQ      -0.119200
      8 CAI          5.0380     0.3300    -0.1140 ce         1 1FQ      -0.534200
      9 CAJ         -5.8150     1.6510     0.7500 ca         1 1FQ      -0.168500
     10 CAK         -7.0670     0.0700    -0.6060 ca         1 1FQ      -0.168500
     11 CAL         -4.6900     0.8090     0.7000 ca         1 1FQ      -0.047000
     12 CAM         -5.9460    -0.7760    -0.6570 ca         1 1FQ      -0.047000
     13 CAN         -1.8310     0.5230    -0.4160 cd         1 1FQ      -0.146000
     14 CAO         -0.9980    -1.5040     0.1060 cc         1 1FQ      -0.100000
     15 NAP         -0.4310     0.5750    -0.3590 na         1 1FQ      -0.081000
     16 CAQ          3.9950    -0.7040     0.0960 c          1 1FQ       0.574500
     17 CAR          7.4280     1.2660    -0.2550 c          1 1FQ       0.710200
     18 CAS          6.3910     0.1430    -0.0240 cf         1 1FQ       0.158900
     19 CAT         -3.5560    -1.3500    -0.0810 c          1 1FQ       0.626300
     20 CAU         -6.9970     1.2830     0.0930 ca         1 1FQ       0.182000
     21 CAV          0.0890    -0.6870    -0.0390 cd         1 1FQ      -0.148800
     22 CAW         -4.7390    -0.4070    -0.0230 ca         1 1FQ      -0.170600
     23 CAX         -2.1830    -0.7650    -0.0950 cc         1 1FQ      -0.262600
     24 HAG          2.4370     0.7880    -0.3090 ha         1 1FQ       0.168000
     25 HAH          1.6680    -2.1170     0.3520 ha         1 1FQ       0.207000
     26 HAI          4.6730     1.3250    -0.3610 ha         1 1FQ       0.209000
     27 HAJ         -5.7730     2.5850     1.3050 ha         1 1FQ       0.130500
     28 HAK         -7.9900    -0.2140    -1.1040 ha         1 1FQ       0.130500
     29 HAL         -3.7940     1.0950     1.2470 ha         1 1FQ       0.130000
     30 HAM         -6.0120    -1.7170    -1.2020 ha         1 1FQ       0.130000
     31 HAN         -2.4340     1.3820    -0.6930 h4         1 1FQ       0.147000
     32 HAO         -0.9690    -2.5660     0.3430 ha         1 1FQ       0.149000
     33 HNAP         0.1250     1.4040    -0.5430 hn         1 1FQ       0.356000
     34 H12          5.9690    -1.6130     0.3770 ho         1 1FQ       0.491000
     35 FAF         -8.0760     2.0940     0.1450 f          1 1FQ      -0.182000
@<TRIPOS>BOND
     1     1    16 2   
     2     2    17 1   
     3     3    19 2   
     4     4    17 1   
     5     5    18 1   
     6     5    34 1   
     7     6     7 2   
     8     6    16 1   
     9     6    24 1   
    10     7    21 1   
    11     7    25 1   
    12     8    16 1   
    13     8    18 2   
    14     8    26 1   
    15     9    11 ar  
    16     9    20 ar  
    17     9    27 1   
    18    10    12 ar  
    19    10    20 ar  
    20    10    28 1   
    21    11    22 ar  
    22    11    29 1   
    23    12    22 ar  
    24    12    30 1   
    25    13    15 1   
    26    13    23 2   
    27    13    31 1   
    28    14    21 2   
    29    14    23 1   
    30    14    32 1   
    31    15    21 1   
    32    15    33 1   
    33    17    18 1   
    34    19    22 1   
    35    19    23 1   
    36    20    35 1   
@<TRIPOS>SUBSTRUCTURE
     1 1FQ         1 TEMP              0 ****  ****    0 ROOT
