@<TRIPOS>MOLECULE
1FQ
   35    36     1     0     0
SMALL
bcc


@<TRIPOS>ATOM
      1 OAA          4.1990    -1.7200     0.4230 o          1 1FQ      -0.658100
      2 OAB          8.4920     0.7700    -0.1470 o          1 1FQ      -0.787800
      3 OAC         -3.7290    -2.5550    -0.0840 o          1 1FQ      -0.537100
      4 OAD          6.9400     2.3080    -0.6280 o          1 1FQ      -0.787800
      5 OAE          6.6470    -1.0490     0.3270 oh         1 1FQ      -0.470100
      6 CAG          2.4990    -0.1540    -0.0810 ce         1 1FQ      -0.205200
      7 CAH          1.4820    -1.0120     0.1100 cf         1 1FQ      -0.069200
      8 CAI          4.9020     0.4390    -0.1620 ce         1 1FQ      -0.484200
      9 CAJ         -5.7410     1.5990     0.8170 ca         1 1FQ      -0.186500
     10 CAK         -6.9360     0.1130    -0.6750 ca         1 1FQ      -0.186500
     11 CAL         -4.6380     0.7600     0.7540 ca         1 1FQ      -0.065000
     12 CAM         -5.8350    -0.7250    -0.7090 ca         1 1FQ      -0.065000
     13 CAN         -1.7630     0.4680    -0.3950 cd         1 1FQ      -0.113300
     14 CAO         -0.9850    -1.5690     0.1530 cc         1 1FQ      -0.118000
     15 NAP         -0.4270     0.5090    -0.3640 na         1 1FQ      -0.132100
     16 CAQ          3.8970    -0.5580     0.0840 c          1 1FQ       0.574500
     17 CAR          7.3320     1.1780    -0.2950 c          1 1FQ       0.920800
     18 CAS          6.2280     0.1430    -0.0320 cf         1 1FQ       0.158900
     19 CAT         -3.5240    -1.3540    -0.0510 c          1 1FQ       0.626300
     20 CAU         -6.8670     1.2610     0.0930 ca         1 1FQ       0.146900
     21 CAV          0.0860    -0.7220    -0.0230 cd         1 1FQ      -0.098100
     22 CAW         -4.6700    -0.4040    -0.0120 ca         1 1FQ      -0.170600
     23 CAX         -2.1670    -0.8220    -0.0710 cc         1 1FQ      -0.262600
     24 HAG          2.3260     0.8770    -0.3660 ha         1 1FQ       0.118000
     25 HAH          1.7060    -2.0350     0.3920 ha         1 1FQ       0.157000
     26 HAI          4.6140     1.4350    -0.4610 ha         1 1FQ       0.159000
     27 HAJ         -5.7230     2.4950     1.4230 ha         1 1FQ       0.148500
     28 HAK         -7.8330    -0.1220    -1.2320 ha         1 1FQ       0.148500
     29 HAL         -3.7610     1.0110     1.3360 ha         1 1FQ       0.148000
     30 HAM         -5.8780    -1.6310    -1.3000 ha         1 1FQ       0.148000
     31 HAN         -2.3390     1.3370    -0.6710 h4         1 1FQ       0.165000
     32 HAO         -0.9200    -2.6110     0.4270 ha         1 1FQ       0.167000
     33 HNAP         0.1150     1.3330    -0.5750 hn         1 1FQ       0.305700
     34 H12          5.8300    -1.6060     0.4550 ho         1 1FQ       0.452000
     35 FAF         -7.9320     2.0710     0.1390 f          1 1FQ      -0.146900
@<TRIPOS>BOND
     1     1    16 2   
     2     2    17 1   
     3     3    19 2   
     4     4    17 1   
     5     5    18 1   
     6     5    34 1   
     7     6     7 2   
     8     6    16 1   
     9     6    24 1   
    10     7    21 1   
    11     7    25 1   
    12     8    16 1   
    13     8    18 2   
    14     8    26 1   
    15     9    11 ar  
    16     9    20 ar  
    17     9    27 1   
    18    10    12 ar  
    19    10    20 ar  
    20    10    28 1   
    21    11    22 ar  
    22    11    29 1   
    23    12    22 ar  
    24    12    30 1   
    25    13    15 1   
    26    13    23 2   
    27    13    31 1   
    28    14    21 2   
    29    14    23 1   
    30    14    32 1   
    31    15    21 1   
    32    15    33 1   
    33    17    18 1   
    34    19    22 1   
    35    19    23 1   
    36    20    35 1   
@<TRIPOS>SUBSTRUCTURE
     1 1FQ         1 TEMP              0 ****  ****    0 ROOT
