@<TRIPOS>MOLECULE
1FS
   40    42     1     0     0
SMALL
bcc


@<TRIPOS>ATOM
      1 O3          -0.5200     0.8360    -1.4270 os         1 1FS      -0.229200
      2 O5           3.4040    -4.3220    -0.0960 o          1 1FS      -0.200500
      3 C1          -0.4030    -1.8120    -1.8190 cg         1 1FS       0.235800
      4 C2          -1.4400    -1.2580    -1.0150 ca         1 1FS      -0.057000
      5 C3          -2.3860    -2.0830    -0.4250 ca         1 1FS       0.002000
      6 C4          -3.3490    -1.5120     0.3850 ca         1 1FS      -0.206200
      7 C5          -3.3920    -0.1410     0.6050 ca         1 1FS      -0.004000
      8 C6          -2.4550     0.6810     0.0110 ca         1 1FS      -0.203000
      9 C7          -1.4740     0.1260    -0.8000 ca         1 1FS       0.199100
     10 C8          -0.1840     2.0820    -0.9640 ca         1 1FS       0.064100
     11 C9          -0.4220     3.2000    -1.7390 ca         1 1FS      -0.101000
     12 C10         -0.0180     4.4480    -1.2880 ca         1 1FS      -0.107000
     13 C11          0.6160     4.5560    -0.0610 ca         1 1FS       0.036400
     14 C12          0.8700     3.4410     0.7250 ca         1 1FS      -0.108000
     15 C17          2.9290    -2.0910    -0.1270 ca         1 1FS      -0.204200
     16 C16          3.2240    -0.8400    -0.6500 ca         1 1FS      -0.006000
     17 C15          2.4720     0.2560    -0.2760 ca         1 1FS      -0.199000
     18 C14          1.4280     0.0940     0.6230 ca         1 1FS       0.198100
     19 C13          0.4660     2.2050     0.2610 ca         1 1FS       0.080100
     20 C18          1.9000    -2.2720     0.7780 ca         1 1FS       0.000000
     21 C19          1.1450    -1.1710     1.1520 ca         1 1FS      -0.054000
     22 C20          0.0470    -1.3230     2.0480 cg         1 1FS       0.234800
     23 O6           4.6120    -3.0590    -1.3230 o          1 1FS      -0.200500
     24 N4          -0.8450    -1.4580     2.7630 n1         1 1FS      -0.336800
     25 O4           0.6390     1.0980     1.0490 os         1 1FS      -0.230200
     26 CL           1.1120     6.1090     0.5060 cl         1 1FS      -0.072400
     27 O2          -5.1220    -1.8540     1.7770 o          1 1FS      -0.200500
     28 O1          -4.3060    -3.5480     0.7640 o          1 1FS      -0.200500
     29 N1           0.4390    -2.2720    -2.4560 n1         1 1FS      -0.337800
     30 H1          -2.3440    -3.1490    -0.5960 ha         1 1FS       0.187000
     31 H2          -4.1520     0.3000     1.2320 ha         1 1FS       0.178000
     32 H3          -2.5010     1.7480     0.1810 ha         1 1FS       0.163000
     33 H4          -0.9230     3.0980    -2.6920 ha         1 1FS       0.165000
     34 H5          -0.2070     5.3250    -1.8900 ha         1 1FS       0.164000
     35 H6           1.3700     3.5230     1.6800 ha         1 1FS       0.175000
     36 H7           4.0340    -0.7060    -1.3520 ha         1 1FS       0.179000
     37 H8           2.7110     1.2300    -0.6820 ha         1 1FS       0.163000
     38 H9           1.6640    -3.2450     1.1840 ha         1 1FS       0.187000
     39 N2          -4.3320    -2.3680     1.0220 no         1 1FS       0.324200
     40 N3           3.7070    -3.2430    -0.5450 no         1 1FS       0.324200
@<TRIPOS>BOND
     1     1     9 1   
     2     1    10 1   
     3     2    40 1   
     4     3     4 1   
     5     3    29 3   
     6     4     5 ar  
     7     4     9 ar  
     8     5     6 ar  
     9     5    30 1   
    10     6     7 ar  
    11     6    39 1   
    12     7     8 ar  
    13     7    31 1   
    14     8     9 ar  
    15     8    32 1   
    16    10    11 ar  
    17    10    19 ar  
    18    11    12 ar  
    19    11    33 1   
    20    12    13 ar  
    21    12    34 1   
    22    13    14 ar  
    23    13    26 1   
    24    14    19 ar  
    25    14    35 1   
    26    15    16 ar  
    27    15    20 ar  
    28    15    40 1   
    29    16    17 ar  
    30    16    36 1   
    31    17    18 ar  
    32    17    37 1   
    33    18    21 ar  
    34    18    25 1   
    35    19    25 1   
    36    20    21 ar  
    37    20    38 1   
    38    21    22 1   
    39    22    24 3   
    40    23    40 1   
    41    27    39 1   
    42    28    39 1   
@<TRIPOS>SUBSTRUCTURE
     1 1FS         1 TEMP              0 ****  ****    0 ROOT
