@<TRIPOS>MOLECULE
1FS
   40    42     1     0     0
SMALL
No Charge or Current Charge


@<TRIPOS>ATOM
      1 O3          -0.5300     1.0160    -1.5640 os         1 1FS      -0.229200
      2 O5           3.0880    -4.5230     0.0010 o          1 1FS      -0.390500
      3 C1          -0.3460    -1.7420    -2.1370 cg         1 1FS       0.325000
      4 C2          -1.3090    -1.2360    -1.2000 ca         1 1FS      -0.057000
      5 C3          -2.1700    -2.1350    -0.5410 ca         1 1FS       0.020000
      6 C4          -3.1230    -1.6610     0.3910 ca         1 1FS      -0.206200
      7 C5          -3.2100    -0.2730     0.6460 ca         1 1FS       0.014000
      8 C6          -2.3500     0.6200    -0.0130 ca         1 1FS      -0.185000
      9 C7          -1.3900     0.1440    -0.9260 ca         1 1FS       0.199100
     10 C8          -0.1430     2.2280    -1.0320 ca         1 1FS       0.064100
     11 C9          -0.2970     3.3760    -1.8290 ca         1 1FS      -0.083000
     12 C10          0.0750     4.6380    -1.3340 ca         1 1FS      -0.089000
     13 C11          0.6050     4.7550    -0.0390 ca         1 1FS       0.128000
     14 C12          0.7750     3.6130     0.7600 ca         1 1FS      -0.090000
     15 C17          2.6900    -2.2100    -0.0870 ca         1 1FS      -0.204200
     16 C16          2.9990    -0.9620    -0.6750 ca         1 1FS       0.012000
     17 C15          2.3100     0.1950    -0.2760 ca         1 1FS      -0.181000
     18 C14          1.3050     0.1240     0.7060 ca         1 1FS       0.198100
     19 C13          0.4190     2.3460     0.2680 ca         1 1FS       0.080100
     20 C18          1.6910    -2.2750     0.9130 ca         1 1FS       0.018000
     21 C19          1.0040    -1.1120     1.3110 ca         1 1FS      -0.054000
     22 C20         -0.0090    -1.2050     2.3240 cg         1 1FS       0.324000
     23 O6           4.2990    -3.3400    -1.3740 o          1 1FS      -0.390500
     24 N4          -0.8310    -1.2970     3.1480 n1         1 1FS      -0.426000
     25 O4           0.6130     1.2560     1.0910 os         1 1FS      -0.230200
     26 Cl           1.0630     6.3350     0.5820 cl         1 1FS      -0.164000
     27 O2          -4.8690    -2.1570     1.8830 o          1 1FS      -0.390500
     28 O1          -3.8970    -3.8260     0.8690 o          1 1FS      -0.390500
     29 N1           0.4320    -2.1680    -2.8950 n1         1 1FS      -0.427000
     30 H1          -2.0900    -3.2000    -0.7560 ha         1 1FS       0.169000
     31 H2          -3.9380     0.1220     1.3540 ha         1 1FS       0.160000
     32 H3          -2.4330     1.6840     0.1930 ha         1 1FS       0.145000
     33 H4          -0.7140     3.2870    -2.8300 ha         1 1FS       0.147000
     34 H5          -0.0510     5.5260    -1.9500 ha         1 1FS       0.146000
     35 H6           1.1920     3.7090     1.7590 ha         1 1FS       0.157000
     36 H7           3.7660    -0.8800    -1.4450 ha         1 1FS       0.161000
     37 H8           2.5630     1.1460    -0.7380 ha         1 1FS       0.145000
     38 H9           1.4420    -3.2260     1.3830 ha         1 1FS       0.169000
     39 N2          -4.0290    -2.6170     1.1000 no         1 1FS       0.704200
     40 N3           3.4110    -3.4470    -0.5190 no         1 1FS       0.704200
@<TRIPOS>BOND
     1     1     9 1   
     2     1    10 1   
     3     2    40 1   
     4     3     4 1   
     5     3    29 3   
     6     4     5 ar  
     7     4     9 ar  
     8     5     6 ar  
     9     5    30 1   
    10     6     7 ar  
    11     6    39 1   
    12     7     8 ar  
    13     7    31 1   
    14     8     9 ar  
    15     8    32 1   
    16    10    11 ar  
    17    10    19 ar  
    18    11    12 ar  
    19    11    33 1   
    20    12    13 ar  
    21    12    34 1   
    22    13    14 ar  
    23    13    26 1   
    24    14    19 ar  
    25    14    35 1   
    26    15    16 ar  
    27    15    20 ar  
    28    15    40 1   
    29    16    17 ar  
    30    16    36 1   
    31    17    18 ar  
    32    17    37 1   
    33    18    21 ar  
    34    18    25 1   
    35    19    25 1   
    36    20    21 ar  
    37    20    38 1   
    38    21    22 1   
    39    22    24 3   
    40    23    40 1   
    41    27    39 1   
    42    28    39 1   
@<TRIPOS>SUBSTRUCTURE
     1 1FS         1 TEMP              0 ****  ****    0 ROOT
