@<TRIPOS>MOLECULE
1FV
   70    74     1     0     0
SMALL
No Charge or Current Charge


@<TRIPOS>ATOM
      1 CAM         -8.6070     0.3860     1.2280 cy         1 1FV      -0.074400
      2 CAH        -10.0280     0.7720     0.6840 cy         1 1FV      -0.091400
      3 CAN         -9.3190     1.9940     0.0000 cy         1 1FV      -0.074400
      4 CBF         -8.3820     1.9480     1.2720 cy         1 1FV      -0.177700
      5 CAZ         -6.9550     1.9490     0.5740 c          1 1FV       0.609100
      6 OAA         -6.5710     2.2240    -0.5570 o          1 1FV      -0.604100
      7 NAV         -6.0120     1.6200     1.5260 ns         1 1FV      -0.506900
      8 CAI         -4.5740     1.4710     1.2820 c3         1 1FV       0.110000
      9 CAG         -4.2390     0.1150     0.6310 c3         1 1FV      -0.125400
     10 CAJ         -2.7300    -0.0630     0.3880 c3         1 1FV       0.237800
     11 NAW         -2.4680    -1.3710    -0.2250 nu         1 1FV      -0.931100
     12 C4          -1.2410    -1.9110    -0.5790 ca         1 1FV       0.431900
     13 N3          -0.1580    -1.1430    -0.3920 nb         1 1FV      -0.335000
     14 C5          -1.1560    -3.2090    -1.1140 ca         1 1FV      -0.277300
     15 CBG         -2.3650    -4.0790    -1.3410 cx         1 1FV      -0.065400
     16 CAO         -3.1880    -4.6020    -0.1870 cx         1 1FV      -0.129400
     17 CAP         -2.3540    -5.5540    -1.0090 cx         1 1FV      -0.129400
     18 C6           0.1310    -3.6600    -1.4580 ca         1 1FV       0.175900
     19 N1           1.2220    -2.8950    -1.2730 nb         1 1FV      -0.269000
     20 C2           1.0180    -1.6800    -0.7370 ca         1 1FV       0.423900
     21 NAX          2.1020    -0.8370    -0.5530 nu         1 1FV      -0.932900
     22 CBB          3.4900    -0.9760    -0.6650 ca         1 1FV       0.320000
     23 CAF          4.2580     0.1760    -0.9090 ca         1 1FV      -0.156000
     24 CAD          4.1440    -2.2130    -0.5040 ca         1 1FV      -0.137000
     25 CAB          5.5430    -2.2980    -0.6090 ca         1 1FV      -0.086000
     26 CAC          6.2990    -1.1440    -0.8690 ca         1 1FV      -0.144000
     27 CBA          5.6610     0.1020    -1.0170 ca         1 1FV      -0.058300
     28 CAS          6.4770     1.3650    -1.2880 c3         1 1FV       0.216100
     29 NBH          6.4630     2.3300    -0.1620 n3         1 1FV      -0.723600
     30 CAQ          7.1200     3.6290    -0.5080 c6         1 1FV       0.128300
     31 CAK          7.0800     4.6330     0.6830 c6         1 1FV       0.153100
     32 OAY          7.6670     4.0350     1.8650 os         1 1FV      -0.451000
     33 CAL          6.9950     2.8150     2.2640 c6         1 1FV       0.153100
     34 CAR          7.0310     1.7720     1.1070 c6         1 1FV       0.128300
     35 H1          -8.5940    -0.1270     2.1960 hc         1 1FV       0.060450
     36 H2          -8.0120    -0.2030     0.5160 hc         1 1FV       0.060450
     37 H3         -10.4940     0.0480     0.0070 hc         1 1FV       0.051200
     38 H4         -10.7570     1.0410     1.4600 hc         1 1FV       0.051200
     39 H5          -8.9080     1.7410    -0.9850 hc         1 1FV       0.060450
     40 H6          -9.9310     2.8960    -0.1060 hc         1 1FV       0.060450
     41 H7          -8.5740     2.5420     2.1730 hc         1 1FV       0.055700
     42 H8          -6.3650     1.4260     2.4560 hn         1 1FV       0.312500
     43 H9          -4.2300     2.2900     0.6370 h1         1 1FV       0.057200
     44 H10         -4.0490     1.5550     2.2430 h1         1 1FV       0.057200
     45 H11         -4.6000    -0.6920     1.2800 hc         1 1FV       0.053700
     46 H12         -4.7710     0.0300    -0.3250 hc         1 1FV       0.053700
     47 H13         -2.3690     0.7420    -0.2690 h1         1 1FV       0.053200
     48 H14         -2.1960     0.0180     1.3460 h1         1 1FV       0.053200
     49 H15         -3.2590    -2.0000    -0.3530 hn         1 1FV       0.504000
     50 H16         -2.9110    -3.7930    -2.2380 hc         1 1FV       0.080700
     51 H17         -2.8510    -4.3800     0.8230 hc         1 1FV       0.072450
     52 H18         -4.2680    -4.6400    -0.3090 hc         1 1FV       0.072450
     53 H19         -2.8730    -6.2280    -1.6860 hc         1 1FV       0.072450
     54 H20         -1.4650    -5.9710    -0.5440 hc         1 1FV       0.072450
     55 H21          0.2940    -4.6450    -1.8930 h4         1 1FV       0.019100
     56 H22          1.8040     0.1170    -0.3610 hn         1 1FV       0.507000
     57 H23          3.7670     1.1380    -1.0190 ha         1 1FV       0.126000
     58 H24          3.5780    -3.1100    -0.2780 ha         1 1FV       0.152000
     59 H25          6.0400    -3.2570    -0.4830 ha         1 1FV       0.111000
     60 H26          7.3810    -1.2170    -0.9460 ha         1 1FV       0.110000
     61 H27          7.5110     1.0820    -1.5260 h1         1 1FV       0.039700
     62 H28          6.0660     1.8430    -2.1880 h1         1 1FV       0.039700
     63 H30          8.1700     3.4620    -0.7910 h1         1 1FV       0.042950
     64 H31          6.6230     4.0900    -1.3740 h1         1 1FV       0.042950
     65 H32          7.6390     5.5430     0.4250 h1         1 1FV       0.049700
     66 H33          6.0400     4.9180     0.8990 h1         1 1FV       0.049700
     67 H34          7.4930     2.4050     3.1540 h1         1 1FV       0.049700
     68 H35          5.9530     3.0450     2.5290 h1         1 1FV       0.049700
     69 H36          6.4690     0.8820     1.4250 h1         1 1FV       0.042950
     70 H37          8.0730     1.4550     0.9510 h1         1 1FV       0.042950
@<TRIPOS>BOND
     1     1     2 1   
     2     1     4 1   
     3     1    35 1   
     4     1    36 1   
     5     2     3 1   
     6     2    37 1   
     7     2    38 1   
     8     3     4 1   
     9     3    39 1   
    10     3    40 1   
    11     4     5 1   
    12     4    41 1   
    13     5     6 2   
    14     5     7 1   
    15     7     8 1   
    16     7    42 1   
    17     8     9 1   
    18     8    43 1   
    19     8    44 1   
    20     9    10 1   
    21     9    45 1   
    22     9    46 1   
    23    10    11 1   
    24    10    47 1   
    25    10    48 1   
    26    11    12 1   
    27    11    49 1   
    28    12    13 ar  
    29    12    14 ar  
    30    13    20 ar  
    31    14    15 1   
    32    14    18 ar  
    33    15    16 1   
    34    15    17 1   
    35    15    50 1   
    36    16    17 1   
    37    16    51 1   
    38    16    52 1   
    39    17    53 1   
    40    17    54 1   
    41    18    19 ar  
    42    18    55 1   
    43    19    20 ar  
    44    20    21 1   
    45    21    22 1   
    46    21    56 1   
    47    22    23 ar  
    48    22    24 ar  
    49    23    27 ar  
    50    23    57 1   
    51    24    25 ar  
    52    24    58 1   
    53    25    26 ar  
    54    25    59 1   
    55    26    27 ar  
    56    26    60 1   
    57    27    28 1   
    58    28    29 1   
    59    28    61 1   
    60    28    62 1   
    61    29    30 1   
    62    29    34 1   
    63    30    31 1   
    64    30    63 1   
    65    30    64 1   
    66    31    32 1   
    67    31    65 1   
    68    31    66 1   
    69    32    33 1   
    70    33    34 1   
    71    33    67 1   
    72    33    68 1   
    73    34    69 1   
    74    34    70 1   
@<TRIPOS>SUBSTRUCTURE
     1 1FV         1 TEMP              0 ****  ****    0 ROOT
