@<TRIPOS>MOLECULE
1FV
   70    74     1     0     0
SMALL
abcg2


@<TRIPOS>ATOM
      1 CAM         -9.1480     1.0210     0.5730 cy         1 1FV      -0.074400
      2 CAH        -10.0180     2.2670     0.8140 cy         1 1FV      -0.091400
      3 CAN         -8.7260     3.1010     0.8640 cy         1 1FV      -0.074400
      4 CBF         -7.9410     1.7970     1.1400 cy         1 1FV      -0.177700
      5 CAZ         -6.6170     1.6330     0.4410 c          1 1FV       0.609100
      6 OAA         -6.5240     1.6670    -0.7810 o          1 1FV      -0.604100
      7 NAV         -5.5530     1.4740     1.2440 ns         1 1FV      -0.506900
      8 CAI         -4.2040     1.2820     0.7630 c3         1 1FV       0.110000
      9 CAG         -3.9010    -0.1710     0.4170 c3         1 1FV      -0.125400
     10 CAJ         -2.4460    -0.3540     0.0190 c3         1 1FV       0.237800
     11 NAW         -2.1920    -1.7410    -0.2980 nu         1 1FV      -0.931100
     12 C4          -0.9800    -2.2410    -0.5730 ca         1 1FV       0.431900
     13 N3           0.0560    -1.4120    -0.5700 nb         1 1FV      -0.335000
     14 C5          -0.8210    -3.6280    -0.8510 ca         1 1FV      -0.277300
     15 CBG         -1.9840    -4.5460    -0.8710 cx         1 1FV      -0.065400
     16 CAO         -2.6530    -4.9350     0.4230 cx         1 1FV      -0.129400
     17 CAP         -1.8640    -5.9440    -0.3490 cx         1 1FV      -0.129400
     18 C6           0.4660    -4.0160    -1.1060 ca         1 1FV       0.175900
     19 N1           1.5250    -3.1960    -1.1020 nb         1 1FV      -0.269000
     20 C2           1.2590    -1.9300    -0.8330 ca         1 1FV       0.423900
     21 NAX          2.2650    -1.0050    -0.8040 nu         1 1FV      -0.932900
     22 CBB          3.6340    -1.1180    -1.0100 ca         1 1FV       0.320000
     23 CAF          4.3710     0.0680    -0.9190 ca         1 1FV      -0.156000
     24 CAD          4.3080    -2.3100    -1.2910 ca         1 1FV      -0.137000
     25 CAB          5.6850    -2.2860    -1.4660 ca         1 1FV      -0.086000
     26 CAC          6.4100    -1.1080    -1.3700 ca         1 1FV      -0.144000
     27 CBA          5.7450     0.0850    -1.0990 ca         1 1FV      -0.058300
     28 CAS          6.4990     1.3910    -1.0520 c3         1 1FV       0.216100
     29 NBH          5.9880     2.2990    -0.0510 n3         1 1FV      -0.723600
     30 CAQ          6.4380     3.6630    -0.2550 c6         1 1FV       0.128300
     31 CAK          5.8070     4.5710     0.7840 c6         1 1FV       0.153100
     32 OAY          6.1050     4.1470     2.0950 os         1 1FV      -0.451000
     33 CAL          5.6800     2.8170     2.3020 c6         1 1FV       0.153100
     34 CAR          6.3020     1.8680     1.2970 c6         1 1FV       0.128300
     35 H1          -9.4220     0.0930     1.0730 hc         1 1FV       0.060450
     36 H2          -9.0190     0.8240    -0.4920 hc         1 1FV       0.060450
     37 H3         -10.7570     2.5230     0.0540 hc         1 1FV       0.051200
     38 H4         -10.5170     2.2320     1.7840 hc         1 1FV       0.051200
     39 H5          -8.4770     3.5110    -0.1160 hc         1 1FV       0.060450
     40 H6          -8.6490     3.8930     1.6080 hc         1 1FV       0.060450
     41 H7          -7.8480     1.6310     2.2150 hc         1 1FV       0.055700
     42 H8          -5.7030     1.4220     2.2380 hn         1 1FV       0.312500
     43 H9          -4.0400     1.9200    -0.1060 h1         1 1FV       0.057200
     44 H10         -3.5250     1.6280     1.5440 h1         1 1FV       0.057200
     45 H11         -4.1260    -0.8010     1.2820 hc         1 1FV       0.053700
     46 H12         -4.5540    -0.4940    -0.3980 hc         1 1FV       0.053700
     47 H13         -2.2060     0.2820    -0.8390 h1         1 1FV       0.053200
     48 H14         -1.7940    -0.0320     0.8370 h1         1 1FV       0.053200
     49 H15         -2.9680    -2.3830    -0.2840 hn         1 1FV       0.504000
     50 H16         -2.6590    -4.4200    -1.7140 hc         1 1FV       0.080700
     51 H17         -2.2230    -4.5560     1.3420 hc         1 1FV       0.072450
     52 H18         -3.7320    -5.0190     0.4330 hc         1 1FV       0.072450
     53 H19         -2.4020    -6.7230    -0.8720 hc         1 1FV       0.072450
     54 H20         -0.9110    -6.2570     0.0560 hc         1 1FV       0.072450
     55 H21          0.6770    -5.0580    -1.3280 h4         1 1FV       0.019100
     56 H22          1.9370    -0.0750    -0.5930 hn         1 1FV       0.507000
     57 H23          3.8650     0.9990    -0.6870 ha         1 1FV       0.126000
     58 H24          3.7650    -3.2370    -1.3660 ha         1 1FV       0.152000
     59 H25          6.1990    -3.2150    -1.6780 ha         1 1FV       0.111000
     60 H26          7.4850    -1.1140    -1.5010 ha         1 1FV       0.110000
     61 H27          7.5750     1.1870    -0.9200 h1         1 1FV       0.039700
     62 H28          6.4040     1.8800    -2.0270 h1         1 1FV       0.039700
     63 H30          7.5370     3.7500    -0.2030 h1         1 1FV       0.042950
     64 H31          6.1340     4.0010    -1.2490 h1         1 1FV       0.042950
     65 H32          6.1880     5.5880     0.6740 h1         1 1FV       0.049700
     66 H33          4.7190     4.5990     0.6260 h1         1 1FV       0.049700
     67 H34          5.9700     2.5350     3.3150 h1         1 1FV       0.049700
     68 H35          4.5850     2.7470     2.2310 h1         1 1FV       0.049700
     69 H36          5.9020     0.8660     1.4680 h1         1 1FV       0.042950
     70 H37          7.3930     1.8140     1.4590 h1         1 1FV       0.042950
@<TRIPOS>BOND
     1     1     2 1   
     2     1     4 1   
     3     1    35 1   
     4     1    36 1   
     5     2     3 1   
     6     2    37 1   
     7     2    38 1   
     8     3     4 1   
     9     3    39 1   
    10     3    40 1   
    11     4     5 1   
    12     4    41 1   
    13     5     6 2   
    14     5     7 1   
    15     7     8 1   
    16     7    42 1   
    17     8     9 1   
    18     8    43 1   
    19     8    44 1   
    20     9    10 1   
    21     9    45 1   
    22     9    46 1   
    23    10    11 1   
    24    10    47 1   
    25    10    48 1   
    26    11    12 1   
    27    11    49 1   
    28    12    13 ar  
    29    12    14 ar  
    30    13    20 ar  
    31    14    15 1   
    32    14    18 ar  
    33    15    16 1   
    34    15    17 1   
    35    15    50 1   
    36    16    17 1   
    37    16    51 1   
    38    16    52 1   
    39    17    53 1   
    40    17    54 1   
    41    18    19 ar  
    42    18    55 1   
    43    19    20 ar  
    44    20    21 1   
    45    21    22 1   
    46    21    56 1   
    47    22    23 ar  
    48    22    24 ar  
    49    23    27 ar  
    50    23    57 1   
    51    24    25 ar  
    52    24    58 1   
    53    25    26 ar  
    54    25    59 1   
    55    26    27 ar  
    56    26    60 1   
    57    27    28 1   
    58    28    29 1   
    59    28    61 1   
    60    28    62 1   
    61    29    30 1   
    62    29    34 1   
    63    30    31 1   
    64    30    63 1   
    65    30    64 1   
    66    31    32 1   
    67    31    65 1   
    68    31    66 1   
    69    32    33 1   
    70    33    34 1   
    71    33    67 1   
    72    33    68 1   
    73    34    69 1   
    74    34    70 1   
@<TRIPOS>SUBSTRUCTURE
     1 1FV         1 TEMP              0 ****  ****    0 ROOT
