@<TRIPOS>MOLECULE
1FW
   49    52     1     0     0
SMALL
abcg2


@<TRIPOS>ATOM
      1 O26          1.0190    -0.7530     1.9550 o          1 1FW      -0.539000
      2 C25          1.4290    -0.7740     0.8090 c          1 1FW       0.578600
      3 C27          2.6810    -1.3960     0.3930 ca         1 1FW      -0.176600
      4 C28          3.5150    -1.9800     1.3500 ca         1 1FW      -0.085000
      5 C5           3.0220    -1.4110    -0.9640 ca         1 1FW       0.171400
      6 N6           2.2140    -0.8460    -1.9230 nc         1 1FW      -0.614100
      7 C4           4.2210    -2.0220    -1.3560 ca         1 1FW      -0.077000
      8 C3           5.0490    -2.5950    -0.4190 ca         1 1FW      -0.114000
      9 C2           4.6800    -2.5630     0.9240 ca         1 1FW       0.148000
     10 F1           5.5010    -3.1230     1.8230 f          1 1FW      -0.174000
     11 N8           0.7190    -0.1870    -0.2280 n          1 1FW      -0.320300
     12 C7           1.1360    -0.2870    -1.5260 cd         1 1FW       0.520800
     13 C9          -0.5730     0.4120     0.0670 c3         1 1FW       0.009700
     14 C17         -1.6630    -0.6160    -0.2450 c          1 1FW       0.591100
     15 N19         -2.8520    -0.3270     0.3610 ns         1 1FW      -0.480400
     16 C20         -4.0350    -1.0220     0.2170 cc         1 1FW       0.569300
     17 N21         -4.3000    -1.8900    -0.6990 nd         1 1FW      -0.651000
     18 C22         -5.5690    -2.3770    -0.5440 cd         1 1FW       0.306900
     19 C23         -6.2800    -1.8740     0.4920 cc         1 1FW      -0.267000
     20 S24         -5.3200    -0.7330     1.3490 ss         1 1FW      -0.088400
     21 O18         -1.4720    -1.5590    -0.9730 o          1 1FW      -0.509100
     22 C10         -0.8340     1.7220    -0.6900 c3         1 1FW      -0.081400
     23 C11          0.2810     2.7600    -0.5870 c6         1 1FW      -0.062700
     24 C12         -0.1310     4.0180    -1.3550 c6         1 1FW      -0.072900
     25 C13          0.9440     5.0980    -1.2990 c6         1 1FW      -0.073400
     26 C14          1.3060     5.4450     0.1410 c6         1 1FW      -0.075400
     27 C15          1.7130     4.1970     0.9170 c6         1 1FW      -0.073400
     28 C16          0.6380     3.1160     0.8560 c6         1 1FW      -0.072900
     29 H1           3.2500    -1.9710     2.3990 ha         1 1FW       0.153000
     30 H2           4.4860    -2.0360    -2.4050 ha         1 1FW       0.139000
     31 H3           5.9770    -3.0670    -0.7150 ha         1 1FW       0.136000
     32 H4           0.4870     0.1680    -2.2630 h5         1 1FW       0.056800
     33 H5          -0.5820     0.6220     1.1370 h1         1 1FW       0.104700
     34 H6          -2.8560     0.4390     1.0180 hn         1 1FW       0.332500
     35 H7          -5.9410    -3.1150    -1.2400 h4         1 1FW       0.047100
     36 H8          -7.2900    -2.0990     0.7930 h4         1 1FW       0.165000
     37 H9          -1.0510     1.5200    -1.7430 hc         1 1FW       0.054700
     38 H10         -1.7530     2.1510    -0.2810 hc         1 1FW       0.054700
     39 H11          1.1850     2.3660    -1.0710 hc         1 1FW       0.055700
     40 H12         -0.3540     3.7610    -2.3940 hc         1 1FW       0.040200
     41 H13         -1.0620     4.4080    -0.9240 hc         1 1FW       0.040200
     42 H14          1.8390     4.7450    -1.8250 hc         1 1FW       0.042450
     43 H15          0.6050     5.9890    -1.8330 hc         1 1FW       0.042450
     44 H16          2.1110     6.1830     0.1630 hc         1 1FW       0.040700
     45 H17          0.4430     5.9110     0.6290 hc         1 1FW       0.040700
     46 H18          2.6460     3.8010     0.5000 hc         1 1FW       0.042450
     47 H19          1.9250     4.4510     1.9580 hc         1 1FW       0.042450
     48 H20         -0.2650     3.4650     1.3730 hc         1 1FW       0.040200
     49 H21          0.9860     2.2350     1.4030 hc         1 1FW       0.040200
@<TRIPOS>BOND
     1     1     2 2   
     2     2     3 1   
     3     2    11 1   
     4     3     4 ar  
     5     3     5 ar  
     6     4     9 ar  
     7     4    29 1   
     8     5     6 1   
     9     5     7 ar  
    10     6    12 2   
    11     7     8 ar  
    12     7    30 1   
    13     8     9 ar  
    14     8    31 1   
    15     9    10 1   
    16    11    12 1   
    17    11    13 1   
    18    12    32 1   
    19    13    14 1   
    20    13    22 1   
    21    13    33 1   
    22    14    15 1   
    23    14    21 2   
    24    15    16 1   
    25    15    34 1   
    26    16    17 2   
    27    16    20 1   
    28    17    18 1   
    29    18    19 2   
    30    18    35 1   
    31    19    20 1   
    32    19    36 1   
    33    22    23 1   
    34    22    37 1   
    35    22    38 1   
    36    23    24 1   
    37    23    28 1   
    38    23    39 1   
    39    24    25 1   
    40    24    40 1   
    41    24    41 1   
    42    25    26 1   
    43    25    42 1   
    44    25    43 1   
    45    26    27 1   
    46    26    44 1   
    47    26    45 1   
    48    27    28 1   
    49    27    46 1   
    50    27    47 1   
    51    28    48 1   
    52    28    49 1   
@<TRIPOS>SUBSTRUCTURE
     1 1FW         1 TEMP              0 ****  ****    0 ROOT
