@<TRIPOS>MOLECULE
1FW
   49    52     1     0     0
SMALL
No Charge or Current Charge


@<TRIPOS>ATOM
      1 O26          1.3350    -0.4770     1.8840 o          1 1FW      -0.539000
      2 C25          1.5860    -0.6840     0.7040 c          1 1FW       0.578600
      3 C27          2.8850    -1.2570     0.2730 ca         1 1FW      -0.176600
      4 C28          3.8940    -1.5590     1.2180 ca         1 1FW      -0.085000
      5 C5           3.0970    -1.4950    -1.0960 ca         1 1FW       0.171400
      6 N6           2.1530    -1.2280    -2.0930 nc         1 1FW      -0.614100
      7 C4           4.3330    -2.0380    -1.5030 ca         1 1FW      -0.077000
      8 C3           5.3400    -2.3400    -0.5680 ca         1 1FW      -0.114000
      9 C2           5.1160    -2.0990     0.7920 ca         1 1FW       0.148000
     10 F1           6.0780    -2.3860     1.6960 f          1 1FW      -0.174000
     11 N8           0.6800    -0.4110    -0.3220 n          1 1FW      -0.320300
     12 C7           1.0060    -0.7090    -1.6410 cd         1 1FW       0.520800
     13 C9          -0.6510     0.2100     0.0010 c3         1 1FW       0.009700
     14 C17         -1.8520    -0.7390    -0.2740 c          1 1FW       0.591100
     15 N19         -3.0520    -0.3080     0.2560 ns         1 1FW      -0.480400
     16 C20         -4.2970    -0.8890     0.1870 cc         1 1FW       0.569300
     17 N21         -4.5380    -2.0240    -0.4480 nd         1 1FW      -0.651000
     18 C22         -5.8820    -2.3560    -0.3460 cd         1 1FW       0.306900
     19 C23         -6.6430    -1.4630     0.3680 cc         1 1FW      -0.267000
     20 S24         -5.6770    -0.1410     0.9510 ss         1 1FW      -0.088400
     21 O18         -1.7240    -1.7790    -0.9040 o          1 1FW      -0.509100
     22 C10         -0.8380     1.5880    -0.7080 c3         1 1FW      -0.081400
     23 C11          0.2950     2.6400    -0.4810 c6         1 1FW      -0.062700
     24 C12          0.0620     3.8980    -1.3650 c6         1 1FW      -0.072900
     25 C13          1.1820     4.9490    -1.1690 c6         1 1FW      -0.073400
     26 C14          1.3190     5.3500     0.3190 c6         1 1FW      -0.075400
     27 C15          1.5510     4.1060     1.2100 c6         1 1FW      -0.073400
     28 C16          0.4310     3.0550     1.0130 c6         1 1FW      -0.072900
     29 H1           3.7360    -1.3770     2.2790 ha         1 1FW       0.153000
     30 H2           4.5110    -2.2280    -2.5580 ha         1 1FW       0.139000
     31 H3           6.2870    -2.7590    -0.8980 ha         1 1FW       0.136000
     32 H4           0.2380    -0.4850    -2.3710 h5         1 1FW       0.056800
     33 H5          -0.7050     0.4040     1.0790 h1         1 1FW       0.104700
     34 H6          -3.0020     0.5620     0.7650 hn         1 1FW       0.332500
     35 H7          -6.2460    -3.2630    -0.8140 h4         1 1FW       0.047100
     36 H8          -7.7030    -1.5020     0.5830 h4         1 1FW       0.165000
     37 H9          -0.9520     1.4090    -1.7850 hc         1 1FW       0.054700
     38 H10         -1.7910     2.0270    -0.3880 hc         1 1FW       0.054700
     39 H11          1.2370     2.1750    -0.8030 hc         1 1FW       0.055700
     40 H12          0.0150     3.6100    -2.4240 hc         1 1FW       0.040200
     41 H13         -0.9110     4.3500    -1.1230 hc         1 1FW       0.040200
     42 H14          2.1370     4.5440    -1.5330 hc         1 1FW       0.042450
     43 H15          0.9690     5.8390    -1.7770 hc         1 1FW       0.042450
     44 H16          2.1500     6.0570     0.4400 hc         1 1FW       0.040700
     45 H17          0.4110     5.8750     0.6460 hc         1 1FW       0.040700
     46 H18          2.5260     3.6570     0.9720 hc         1 1FW       0.042450
     47 H19          1.5970     4.4080     2.2660 hc         1 1FW       0.042450
     48 H20         -0.5230     3.4620     1.3760 hc         1 1FW       0.040200
     49 H21          0.6540     2.1810     1.6370 hc         1 1FW       0.040200
@<TRIPOS>BOND
     1     1     2 2   
     2     2     3 1   
     3     2    11 1   
     4     3     4 ar  
     5     3     5 ar  
     6     4     9 ar  
     7     4    29 1   
     8     5     6 1   
     9     5     7 ar  
    10     6    12 2   
    11     7     8 ar  
    12     7    30 1   
    13     8     9 ar  
    14     8    31 1   
    15     9    10 1   
    16    11    12 1   
    17    11    13 1   
    18    12    32 1   
    19    13    14 1   
    20    13    22 1   
    21    13    33 1   
    22    14    15 1   
    23    14    21 2   
    24    15    16 1   
    25    15    34 1   
    26    16    17 2   
    27    16    20 1   
    28    17    18 1   
    29    18    19 2   
    30    18    35 1   
    31    19    20 1   
    32    19    36 1   
    33    22    23 1   
    34    22    37 1   
    35    22    38 1   
    36    23    24 1   
    37    23    28 1   
    38    23    39 1   
    39    24    25 1   
    40    24    40 1   
    41    24    41 1   
    42    25    26 1   
    43    25    42 1   
    44    25    43 1   
    45    26    27 1   
    46    26    44 1   
    47    26    45 1   
    48    27    28 1   
    49    27    46 1   
    50    27    47 1   
    51    28    48 1   
    52    28    49 1   
@<TRIPOS>SUBSTRUCTURE
     1 1FW         1 TEMP              0 ****  ****    0 ROOT
