@<TRIPOS>MOLECULE
1FX
   50    53     1     0     0
SMALL
No Charge or Current Charge


@<TRIPOS>ATOM
      1 O28         -1.6410     0.0760     1.9010 o          1 1FX      -0.519000
      2 C27         -1.7180     0.5180     0.7620 c          1 1FX       0.605600
      3 C29         -2.9810     1.1790     0.2880 ca         1 1FX      -0.189600
      4 C30         -4.1270     1.2690     1.1110 ca         1 1FX      -0.054000
      5 C5          -3.0200     1.7220    -0.9990 ca         1 1FX       0.108600
      6 N6          -1.8690     1.6140    -1.7770 ns         1 1FX      -0.501600
      7 C4          -4.1770     2.3530    -1.4840 ca         1 1FX      -0.149000
      8 C3          -5.3170     2.4410    -0.6650 ca         1 1FX      -0.082000
      9 C2          -5.2880     1.8990     0.6300 ca         1 1FX       0.127000
     10 F1          -6.3820     1.9830     1.4180 f          1 1FX      -0.170000
     11 N10         -0.6410     0.4500    -0.1500 n          1 1FX      -0.358400
     12 C8          -0.6960     1.0180    -1.4360 c          1 1FX       0.629000
     13 O9           0.2240     0.9830    -2.2350 o          1 1FX      -0.547000
     14 C11          0.6510    -0.2040     0.2790 c3         1 1FX       0.025700
     15 C19          1.8790     0.7640     0.2220 c          1 1FX       0.608100
     16 N21          3.1150     0.1660     0.0690 ns         1 1FX      -0.478400
     17 C22          4.3620     0.7410    -0.0070 cc         1 1FX       0.580300
     18 N23          4.5750     2.0440     0.0740 nd         1 1FX      -0.649000
     19 C24          5.9300     2.3180    -0.0350 cd         1 1FX       0.307900
     20 C25          6.7300     1.2130    -0.1970 cc         1 1FX      -0.269000
     21 S26          5.7860    -0.2460    -0.2190 ss         1 1FX      -0.106400
     22 O20          1.7330     1.9740     0.3300 o          1 1FX      -0.516100
     23 C12          0.8600    -1.6020    -0.3970 c3         1 1FX      -0.081400
     24 C13         -0.3100    -2.6280    -0.2580 c6         1 1FX      -0.057700
     25 C14         -0.1140    -3.8280    -1.2270 c6         1 1FX      -0.075400
     26 C15         -1.2780    -4.8450    -1.1170 c6         1 1FX      -0.072400
     27 C16         -1.4490    -5.3460     0.3370 c6         1 1FX      -0.075400
     28 C17         -1.6340    -4.1620     1.3160 c6         1 1FX      -0.072400
     29 C18         -0.4660    -3.1520     1.2000 c6         1 1FX      -0.075400
     30 H1          -4.1240     0.8560     2.1170 ha         1 1FX       0.159000
     31 H2          -1.8910     2.0120    -2.7090 hn         1 1FX       0.464000
     32 H3          -4.1970     2.7730    -2.4880 ha         1 1FX       0.129000
     33 H4          -6.2190     2.9270    -1.0300 ha         1 1FX       0.138000
     34 H5           0.5930    -0.4170     1.3530 h1         1 1FX       0.107700
     35 H6           3.0940    -0.8390    -0.0030 hn         1 1FX       0.332500
     36 H7           6.2750     3.3440     0.0120 h4         1 1FX       0.045100
     37 H8           7.8060     1.1700    -0.3040 h4         1 1FX       0.163000
     38 H9           1.0640    -1.4340    -1.4620 hc         1 1FX       0.056200
     39 H10          1.7640    -2.0740     0.0080 hc         1 1FX       0.056200
     40 H11         -1.2350    -2.1110    -0.5510 hc         1 1FX       0.051700
     41 H12         -0.0460    -3.4670    -2.2630 hc         1 1FX       0.041450
     42 H13          0.8370    -4.3340    -1.0110 hc         1 1FX       0.041450
     43 H14         -2.2120    -4.3770    -1.4590 hc         1 1FX       0.040200
     44 H15         -1.0940    -5.6970    -1.7850 hc         1 1FX       0.040200
     45 H16         -2.3130    -6.0220     0.4000 hc         1 1FX       0.039200
     46 H17         -0.5690    -5.9350     0.6310 hc         1 1FX       0.039200
     47 H18         -2.5860    -3.6530     1.1080 hc         1 1FX       0.040200
     48 H19         -1.7010    -4.5380     2.3460 hc         1 1FX       0.040200
     49 H20          0.4660    -3.6350     1.5240 hc         1 1FX       0.041450
     50 H21         -0.6380    -2.3230     1.8960 hc         1 1FX       0.041450
@<TRIPOS>BOND
     1     1     2 2   
     2     2     3 1   
     3     2    11 1   
     4     3     4 ar  
     5     3     5 ar  
     6     4     9 ar  
     7     4    30 1   
     8     5     6 1   
     9     5     7 ar  
    10     6    12 1   
    11     6    31 1   
    12     7     8 ar  
    13     7    32 1   
    14     8     9 ar  
    15     8    33 1   
    16     9    10 1   
    17    11    12 1   
    18    11    14 1   
    19    12    13 2   
    20    14    15 1   
    21    14    23 1   
    22    14    34 1   
    23    15    16 1   
    24    15    22 2   
    25    16    17 1   
    26    16    35 1   
    27    17    18 2   
    28    17    21 1   
    29    18    19 1   
    30    19    20 2   
    31    19    36 1   
    32    20    21 1   
    33    20    37 1   
    34    23    24 1   
    35    23    38 1   
    36    23    39 1   
    37    24    25 1   
    38    24    29 1   
    39    24    40 1   
    40    25    26 1   
    41    25    41 1   
    42    25    42 1   
    43    26    27 1   
    44    26    43 1   
    45    26    44 1   
    46    27    28 1   
    47    27    45 1   
    48    27    46 1   
    49    28    29 1   
    50    28    47 1   
    51    28    48 1   
    52    29    49 1   
    53    29    50 1   
@<TRIPOS>SUBSTRUCTURE
     1 1FX         1 TEMP              0 ****  ****    0 ROOT
