@<TRIPOS>MOLECULE
1FX
   50    53     1     0     0
SMALL
bcc


@<TRIPOS>ATOM
      1 O28         -1.3500     0.3560     2.0820 o          1 1FX      -0.594500
      2 C27         -1.5340     0.6090     0.9090 c          1 1FX       0.748100
      3 C29         -2.7630     1.2370     0.4210 ca         1 1FX      -0.189600
      4 C30         -3.8020     1.5200     1.3080 ca         1 1FX      -0.072000
      5 C5          -2.8870     1.5500    -0.9280 ca         1 1FX       0.108600
      6 N6          -1.8380     1.2730    -1.7710 ns         1 1FX      -0.455100
      7 C4          -4.0550     2.1470    -1.4030 ca         1 1FX      -0.167000
      8 C3          -5.0830     2.4240    -0.5280 ca         1 1FX      -0.100000
      9 C2          -4.9410     2.1060     0.8180 ca         1 1FX       0.091900
     10 F1          -5.9510     2.3840     1.6550 f          1 1FX      -0.134900
     11 N10         -0.5940     0.2940    -0.0610 n          1 1FX      -0.492400
     12 C8          -0.6740     0.6900    -1.3920 c          1 1FX       0.838500
     13 O9           0.2470     0.5120    -2.1630 o          1 1FX      -0.622500
     14 C11          0.6480    -0.3540     0.3440 c3         1 1FX       0.025700
     15 C19          1.7700     0.6810     0.2080 c          1 1FX       0.675100
     16 N21          3.0190     0.1520     0.0470 ns         1 1FX      -0.545400
     17 C22          4.1990     0.8620    -0.0300 cc         1 1FX       0.580300
     18 N23          4.3190     2.1310    -0.2210 nd         1 1FX      -0.649000
     19 C24          5.6390     2.4900    -0.2460 cd         1 1FX       0.373200
     20 C25          6.5350     1.4890    -0.0800 cc         1 1FX      -0.207400
     21 S26          5.7000     0.0010     0.1390 ss         1 1FX      -0.251300
     22 O20          1.5470     1.8640     0.3080 o          1 1FX      -0.516100
     23 C12          0.8880    -1.7160    -0.3220 c3         1 1FX      -0.081400
     24 C13         -0.3170    -2.6550    -0.3320 c6         1 1FX      -0.057700
     25 C14         -0.0050    -3.8770    -1.2000 c6         1 1FX      -0.075400
     26 C15         -1.1630    -4.8680    -1.2350 c6         1 1FX      -0.072400
     27 C16         -1.5700    -5.2990     0.1700 c6         1 1FX      -0.075400
     28 C17         -1.8890    -4.0890     1.0400 c6         1 1FX      -0.072400
     29 C18         -0.7270    -3.1010     1.0720 c6         1 1FX      -0.075400
     30 H1          -3.7080     1.2800     2.3580 ha         1 1FX       0.177000
     31 H2          -1.9010     1.5460    -2.7410 hn         1 1FX       0.350500
     32 H3          -4.1540     2.3900    -2.4530 ha         1 1FX       0.147000
     33 H4          -5.9940     2.8860    -0.8850 ha         1 1FX       0.156000
     34 H5           0.5550    -0.5230     1.4190 h1         1 1FX       0.107700
     35 H6           3.1010    -0.8520     0.0090 hn         1 1FX       0.332500
     36 H7           5.9030     3.5260    -0.4010 h4         1 1FX       0.045100
     37 H8           7.6110     1.5360    -0.0770 h4         1 1FX       0.181000
     38 H9           1.2540    -1.5870    -1.3410 hc         1 1FX       0.056200
     39 H10          1.6810    -2.2200     0.2410 hc         1 1FX       0.056200
     40 H11         -1.1700    -2.1390    -0.7920 hc         1 1FX       0.051700
     41 H12          0.2420    -3.5520    -2.2140 hc         1 1FX       0.041450
     42 H13          0.8900    -4.3740    -0.8070 hc         1 1FX       0.041450
     43 H14         -2.0200    -4.4010    -1.7330 hc         1 1FX       0.040200
     44 H15         -0.8900    -5.7370    -1.8380 hc         1 1FX       0.040200
     45 H16         -2.4280    -5.9740     0.1270 hc         1 1FX       0.039200
     46 H17         -0.7510    -5.8670     0.6260 hc         1 1FX       0.039200
     47 H18         -2.7800    -3.5870     0.6480 hc         1 1FX       0.040200
     48 H19         -2.1350    -4.4060     2.0560 hc         1 1FX       0.040200
     49 H20          0.1360    -3.5730     1.5560 hc         1 1FX       0.041450
     50 H21         -0.9970    -2.2440     1.6940 hc         1 1FX       0.041450
@<TRIPOS>BOND
     1     1     2 2   
     2     2     3 1   
     3     2    11 1   
     4     3     4 ar  
     5     3     5 ar  
     6     4     9 ar  
     7     4    30 1   
     8     5     6 1   
     9     5     7 ar  
    10     6    12 1   
    11     6    31 1   
    12     7     8 ar  
    13     7    32 1   
    14     8     9 ar  
    15     8    33 1   
    16     9    10 1   
    17    11    12 1   
    18    11    14 1   
    19    12    13 2   
    20    14    15 1   
    21    14    23 1   
    22    14    34 1   
    23    15    16 1   
    24    15    22 2   
    25    16    17 1   
    26    16    35 1   
    27    17    18 2   
    28    17    21 1   
    29    18    19 1   
    30    19    20 2   
    31    19    36 1   
    32    20    21 1   
    33    20    37 1   
    34    23    24 1   
    35    23    38 1   
    36    23    39 1   
    37    24    25 1   
    38    24    29 1   
    39    24    40 1   
    40    25    26 1   
    41    25    41 1   
    42    25    42 1   
    43    26    27 1   
    44    26    43 1   
    45    26    44 1   
    46    27    28 1   
    47    27    45 1   
    48    27    46 1   
    49    28    29 1   
    50    28    47 1   
    51    28    48 1   
    52    29    49 1   
    53    29    50 1   
@<TRIPOS>SUBSTRUCTURE
     1 1FX         1 TEMP              0 ****  ****    0 ROOT
