@<TRIPOS>MOLECULE
1FY
   53    55     1     0     0
SMALL
No Charge or Current Charge


@<TRIPOS>ATOM
      1 O18          1.9670    -1.8150    -0.5300 o          1 1FY      -0.524100
      2 C17          2.0150    -0.5990    -0.3890 c          1 1FY       0.613100
      3 N19          3.1680     0.0700    -0.0270 ns         1 1FY      -0.471400
      4 C20          4.4200    -0.4270     0.2460 cc         1 1FY       0.584300
      5 N21          4.7310    -1.7110     0.1780 nd         1 1FY      -0.657000
      6 C22          6.0660    -1.9010     0.5050 cd         1 1FY       0.307900
      7 C23          6.7520    -0.7520     0.8170 cc         1 1FY      -0.271000
      8 S24          5.7200     0.6430     0.7070 ss         1 1FY      -0.102400
      9 C9           0.7500     0.2950    -0.6460 c3         1 1FY       0.039700
     10 N8          -0.5420    -0.4170    -0.4010 n          1 1FY      -0.389800
     11 C7          -1.5040    -0.5230    -1.5380 c6         1 1FY       0.118000
     12 C6          -2.5980    -1.6080    -1.3650 c6         1 1FY       0.176800
     13 N5          -3.1820    -1.5730    -0.0040 n3         1 1FY      -0.722500
     14 S2          -4.6520    -2.4480     0.2060 s6         1 1FY       1.202100
     15 O4          -5.6130    -1.8870    -0.7490 o          1 1FY      -0.525000
     16 C1          -4.2570    -4.1270    -0.2560 c3         1 1FY      -0.383100
     17 O3          -4.9570    -2.4100     1.6390 o          1 1FY      -0.525000
     18 C27         -2.1170    -1.8330     1.0190 c6         1 1FY       0.110800
     19 C25         -0.7940    -1.0380     0.8500 c          1 1FY       0.572000
     20 O26         -0.0080    -0.9330     1.7860 o          1 1FY      -0.560000
     21 C10          0.8030     1.7370    -0.0350 c3         1 1FY      -0.093400
     22 C11         -0.3940     2.6990    -0.3480 c6         1 1FY      -0.054700
     23 C12         -1.6170     2.4920     0.6010 c6         1 1FY      -0.074400
     24 C13         -2.7740     3.4650     0.2650 c6         1 1FY      -0.073400
     25 C14         -2.3040     4.9370     0.3200 c6         1 1FY      -0.075400
     26 C15         -1.0910     5.1630    -0.6110 c6         1 1FY      -0.073400
     27 C16          0.0640     4.1860    -0.2760 c6         1 1FY      -0.074400
     28 H1           3.0680     1.0690     0.0550 hn         1 1FY       0.334500
     29 H2           6.4820    -2.9010     0.4980 h4         1 1FY       0.044100
     30 H3           7.7900    -0.6440     1.1010 h4         1 1FY       0.163000
     31 H4           0.8040     0.4650    -1.7290 h1         1 1FY       0.073700
     32 H5          -2.0020     0.4490    -1.6560 h1         1 1FY       0.059200
     33 H6          -0.9570    -0.7190    -2.4710 h1         1 1FY       0.059200
     34 H7          -3.3680    -1.4400    -2.1320 h1         1 1FY       0.069200
     35 H8          -2.1520    -2.5930    -1.5670 h1         1 1FY       0.069200
     36 H9          -3.4460    -4.4730     0.3920 h1         1 1FY       0.103367
     37 H10         -5.1620    -4.7240    -0.1060 h1         1 1FY       0.103367
     38 H11         -3.9590    -4.1270    -1.3090 h1         1 1FY       0.103367
     39 H12         -2.4820    -1.6000     2.0290 h1         1 1FY       0.088700
     40 H13         -1.8220    -2.8920     1.0100 h1         1 1FY       0.088700
     41 H14          0.9340     1.6610     1.0520 hc         1 1FY       0.055700
     42 H15          1.7150     2.2150    -0.4130 hc         1 1FY       0.055700
     43 H16         -0.7040     2.4930    -1.3830 hc         1 1FY       0.042700
     44 H17         -2.0020     1.4690     0.5420 hc         1 1FY       0.041200
     45 H18         -1.3060     2.6410     1.6440 hc         1 1FY       0.041200
     46 H19         -3.1690     3.2380    -0.7340 hc         1 1FY       0.040700
     47 H20         -3.6030     3.3130     0.9700 hc         1 1FY       0.040700
     48 H21         -3.1280     5.6030     0.0300 hc         1 1FY       0.041200
     49 H22         -2.0340     5.2020     1.3520 hc         1 1FY       0.041200
     50 H23         -1.3970     5.0290    -1.6580 hc         1 1FY       0.040700
     51 H24         -0.7400     6.2000    -0.5200 hc         1 1FY       0.040700
     52 H25          0.4530     4.4080     0.7280 hc         1 1FY       0.041200
     53 H26          0.8920     4.3600    -0.9760 hc         1 1FY       0.041200
@<TRIPOS>BOND
     1     1     2 2   
     2     2     3 1   
     3     2     9 1   
     4     3     4 1   
     5     3    28 1   
     6     4     5 2   
     7     4     8 1   
     8     5     6 1   
     9     6     7 2   
    10     6    29 1   
    11     7     8 1   
    12     7    30 1   
    13     9    10 1   
    14     9    21 1   
    15     9    31 1   
    16    10    11 1   
    17    10    19 1   
    18    11    12 1   
    19    11    32 1   
    20    11    33 1   
    21    12    13 1   
    22    12    34 1   
    23    12    35 1   
    24    13    14 1   
    25    13    18 1   
    26    14    15 2   
    27    14    16 1   
    28    14    17 2   
    29    16    36 1   
    30    16    37 1   
    31    16    38 1   
    32    18    19 1   
    33    18    39 1   
    34    18    40 1   
    35    19    20 2   
    36    21    22 1   
    37    21    41 1   
    38    21    42 1   
    39    22    23 1   
    40    22    27 1   
    41    22    43 1   
    42    23    24 1   
    43    23    44 1   
    44    23    45 1   
    45    24    25 1   
    46    24    46 1   
    47    24    47 1   
    48    25    26 1   
    49    25    48 1   
    50    25    49 1   
    51    26    27 1   
    52    26    50 1   
    53    26    51 1   
    54    27    52 1   
    55    27    53 1   
@<TRIPOS>SUBSTRUCTURE
     1 1FY         1 TEMP              0 ****  ****    0 ROOT
