@<TRIPOS>MOLECULE
1FY
   53    55     1     0     0
SMALL
abcg2


@<TRIPOS>ATOM
      1 O18          1.9760    -1.6270    -1.0670 o          1 1FY      -0.524100
      2 C17          1.9580    -0.5100    -0.6080 c          1 1FY       0.613100
      3 N19          3.0110     0.0580     0.0540 ns         1 1FY      -0.471400
      4 C20          4.2270    -0.5300     0.3220 cc         1 1FY       0.584300
      5 N21          4.6470    -1.6670    -0.1180 nd         1 1FY      -0.657000
      6 C22          5.9070    -1.9270     0.3490 cd         1 1FY       0.307900
      7 C23          6.4560    -0.9850     1.1490 cc         1 1FY      -0.271000
      8 S24          5.3480     0.3160     1.3480 ss         1 1FY      -0.102400
      9 C9           0.7400     0.4040    -0.8210 c3         1 1FY       0.039700
     10 N8          -0.4560    -0.3870    -0.5900 n          1 1FY      -0.389800
     11 C7          -1.4250    -0.5050    -1.6670 c6         1 1FY       0.118000
     12 C6          -2.3590    -1.6690    -1.4400 c6         1 1FY       0.176800
     13 N5          -2.8950    -1.5390    -0.0920 n3         1 1FY      -0.722500
     14 S2          -4.3930    -2.1750     0.2240 s6         1 1FY       1.202100
     15 O4          -5.2830    -1.7120    -0.8270 o          1 1FY      -0.525000
     16 C1          -4.2260    -3.9390     0.0790 c3         1 1FY      -0.383100
     17 O3          -4.6970    -1.8520     1.6080 o          1 1FY      -0.525000
     18 C27         -1.8720    -1.7210     0.9230 c6         1 1FY       0.110800
     19 C25         -0.6000    -0.9590     0.6160 c          1 1FY       0.572000
     20 O26          0.2710    -0.8980     1.4730 o          1 1FY      -0.560000
     21 C10          0.7550     1.7580    -0.1080 c3         1 1FY      -0.093400
     22 C11         -0.4600     2.6550    -0.3910 c6         1 1FY      -0.054700
     23 C12         -1.6300     2.4000     0.5650 c6         1 1FY      -0.074400
     24 C13         -2.8010     3.3430     0.3030 c6         1 1FY      -0.073400
     25 C14         -2.3720     4.8020     0.3850 c6         1 1FY      -0.075400
     26 C15         -1.2120     5.0760    -0.5650 c6         1 1FY      -0.073400
     27 C16         -0.0470     4.1270    -0.3050 c6         1 1FY      -0.074400
     28 H1           2.8610     0.9670     0.4600 hn         1 1FY       0.334500
     29 H2           6.3950    -2.8480     0.0640 h4         1 1FY       0.044100
     30 H3           7.4240    -0.9770     1.6220 h4         1 1FY       0.163000
     31 H4           0.7560     0.6180    -1.8950 h1         1 1FY       0.073700
     32 H5          -2.0070     0.4160    -1.7590 h1         1 1FY       0.059200
     33 H6          -0.8890    -0.6540    -2.6050 h1         1 1FY       0.059200
     34 H7          -3.1580    -1.6200    -2.1760 h1         1 1FY       0.069200
     35 H8          -1.8340    -2.6220    -1.5680 h1         1 1FY       0.069200
     36 H9          -3.4810    -4.2970     0.7870 h1         1 1FY       0.103367
     37 H10         -5.1920    -4.3870     0.3090 h1         1 1FY       0.103367
     38 H11         -3.9340    -4.1960    -0.9370 h1         1 1FY       0.103367
     39 H12         -2.2290    -1.3610     1.8860 h1         1 1FY       0.088700
     40 H13         -1.5830    -2.7740     1.0470 h1         1 1FY       0.088700
     41 H14          0.8730     1.6370     0.9720 hc         1 1FY       0.055700
     42 H15          1.6430     2.2880    -0.4700 hc         1 1FY       0.055700
     43 H16         -0.8030     2.4700    -1.4180 hc         1 1FY       0.042700
     44 H17         -1.9800     1.3690     0.4960 hc         1 1FY       0.041200
     45 H18         -1.2740     2.5380     1.5930 hc         1 1FY       0.041200
     46 H19         -3.2090     3.1400    -0.6940 hc         1 1FY       0.040700
     47 H20         -3.6050     3.1390     1.0150 hc         1 1FY       0.040700
     48 H21         -3.2140     5.4610     0.1590 hc         1 1FY       0.041200
     49 H22         -2.0620     5.0310     1.4110 hc         1 1FY       0.041200
     50 H23         -1.5550     4.9540    -1.5990 hc         1 1FY       0.040700
     51 H24         -0.8750     6.1110    -0.4690 hc         1 1FY       0.040700
     52 H25          0.3610     4.3210     0.6940 hc         1 1FY       0.041200
     53 H26          0.7610     4.3230    -1.0150 hc         1 1FY       0.041200
@<TRIPOS>BOND
     1     1     2 2   
     2     2     3 1   
     3     2     9 1   
     4     3     4 1   
     5     3    28 1   
     6     4     5 2   
     7     4     8 1   
     8     5     6 1   
     9     6     7 2   
    10     6    29 1   
    11     7     8 1   
    12     7    30 1   
    13     9    10 1   
    14     9    21 1   
    15     9    31 1   
    16    10    11 1   
    17    10    19 1   
    18    11    12 1   
    19    11    32 1   
    20    11    33 1   
    21    12    13 1   
    22    12    34 1   
    23    12    35 1   
    24    13    14 1   
    25    13    18 1   
    26    14    15 2   
    27    14    16 1   
    28    14    17 2   
    29    16    36 1   
    30    16    37 1   
    31    16    38 1   
    32    18    19 1   
    33    18    39 1   
    34    18    40 1   
    35    19    20 2   
    36    21    22 1   
    37    21    41 1   
    38    21    42 1   
    39    22    23 1   
    40    22    27 1   
    41    22    43 1   
    42    23    24 1   
    43    23    44 1   
    44    23    45 1   
    45    24    25 1   
    46    24    46 1   
    47    24    47 1   
    48    25    26 1   
    49    25    48 1   
    50    25    49 1   
    51    26    27 1   
    52    26    50 1   
    53    26    51 1   
    54    27    52 1   
    55    27    53 1   
@<TRIPOS>SUBSTRUCTURE
     1 1FY         1 TEMP              0 ****  ****    0 ROOT
