@<TRIPOS>MOLECULE
1G0
   48    52     1     0     0
SMALL
abcg2


@<TRIPOS>ATOM
      1 O1          -5.3440     4.1990    -0.5870 oh         1 1G0      -0.639000
      2 C2          -5.4850     2.9370    -0.0040 cy         1 1G0       0.152300
      3 C4          -5.1440     1.6780    -0.8210 cy         1 1G0      -0.097400
      4 C5          -4.4920     1.1120     0.4680 cy         1 1G0      -0.093000
      5 C7          -4.3870     2.5550     0.9900 cy         1 1G0      -0.097400
      6 C8          -3.2370     0.3390     0.3440 cc         1 1G0       0.366800
      7 N9          -2.0300     0.7410     0.6770 nd         1 1G0      -0.552300
      8 C10         -1.1620    -0.2520     0.3640 cd         1 1G0       0.116400
      9 C11         -1.8680    -1.3200    -0.1690 cc         1 1G0      -0.233000
     10 C12         -1.6090    -2.6640    -0.6040 cc         1 1G0       0.671900
     11 N13         -0.3540    -3.1570    -0.5470 nv         1 1G0      -1.055900
     12 N14         -2.5620    -3.4250    -1.0770 nd         1 1G0      -0.783000
     13 C15         -3.8320    -2.9290    -1.1250 cd         1 1G0       0.358900
     14 C16         -4.1940    -1.7100    -0.6830 cc         1 1G0      -0.228000
     15 N17         -3.1900    -0.9050    -0.1800 na         1 1G0       0.090200
     16 C18          0.2750    -0.0860     0.5960 ca         1 1G0      -0.053800
     17 C19          0.7290     0.4550     1.8010 ca         1 1G0      -0.062500
     18 C20          2.0760     0.6540     2.0330 ca         1 1G0      -0.165000
     19 C21          3.0070     0.3120     1.0550 ca         1 1G0       0.140100
     20 O22          4.3150     0.5060     1.3750 os         1 1G0      -0.255200
     21 C23          5.2620     0.5050     0.3800 ca         1 1G0       0.098100
     22 C24          5.3280     1.5580    -0.5230 ca         1 1G0      -0.120500
     23 C25          6.3270     1.5610    -1.4860 ca         1 1G0      -0.099500
     24 C26          7.2510     0.5250    -1.5450 ca         1 1G0      -0.114000
     25 C27          7.1740    -0.5190    -0.6340 ca         1 1G0      -0.099500
     26 C28          6.1750    -0.5370     0.3310 ca         1 1G0      -0.120500
     27 C29          2.5790    -0.2160    -0.1560 ca         1 1G0      -0.165000
     28 C30          1.2210    -0.4010    -0.3770 ca         1 1G0      -0.062500
     29 H1          -6.1000     4.3550    -1.1620 ho         1 1G0       0.445000
     30 H2          -6.4720     2.8160     0.4590 h1         1 1G0       0.031700
     31 H3          -5.9590     1.1150    -1.2750 hc         1 1G0       0.069950
     32 H4          -4.3850     1.8920    -1.5770 hc         1 1G0       0.069950
     33 H5          -5.2290     0.5430     1.0430 hc         1 1G0       0.064700
     34 H6          -3.4320     2.9960     0.7000 hc         1 1G0       0.069950
     35 H7          -4.5600     2.7310     2.0510 hc         1 1G0       0.069950
     36 H8           0.3180    -2.7450     0.0800 hn         1 1G0       0.490500
     37 H9          -0.2530    -4.1490    -0.6890 hn         1 1G0       0.490500
     38 H10         -4.5870    -3.5880    -1.5340 h4         1 1G0       0.028100
     39 H11         -5.2010    -1.3260    -0.6910 h4         1 1G0       0.153000
     40 H12          0.0160     0.7200     2.5710 ha         1 1G0       0.126500
     41 H13          2.4140     1.0680     2.9750 ha         1 1G0       0.129500
     42 H14          4.6120     2.3680    -0.4720 ha         1 1G0       0.129000
     43 H15          6.3840     2.3810    -2.1890 ha         1 1G0       0.116500
     44 H16          8.0290     0.5340    -2.2960 ha         1 1G0       0.116000
     45 H17          7.8900    -1.3290    -0.6740 ha         1 1G0       0.116500
     46 H18          6.1080    -1.3490     1.0440 ha         1 1G0       0.129000
     47 H19          3.2820    -0.4740    -0.9370 ha         1 1G0       0.129500
     48 H20          0.9000    -0.7860    -1.3370 ha         1 1G0       0.126500
@<TRIPOS>BOND
     1     1     2 1   
     2     1    29 1   
     3     2     3 1   
     4     2     5 1   
     5     2    30 1   
     6     3     4 1   
     7     3    31 1   
     8     3    32 1   
     9     4     5 1   
    10     4     6 1   
    11     4    33 1   
    12     5    34 1   
    13     5    35 1   
    14     6     7 2   
    15     6    15 1   
    16     7     8 1   
    17     8     9 2   
    18     8    16 1   
    19     9    10 1   
    20     9    15 1   
    21    10    11 1   
    22    10    12 2   
    23    11    36 1   
    24    11    37 1   
    25    12    13 1   
    26    13    14 2   
    27    13    38 1   
    28    14    15 1   
    29    14    39 1   
    30    16    17 ar  
    31    16    28 ar  
    32    17    18 ar  
    33    17    40 1   
    34    18    19 ar  
    35    18    41 1   
    36    19    20 1   
    37    19    27 ar  
    38    20    21 1   
    39    21    22 ar  
    40    21    26 ar  
    41    22    23 ar  
    42    22    42 1   
    43    23    24 ar  
    44    23    43 1   
    45    24    25 ar  
    46    24    44 1   
    47    25    26 ar  
    48    25    45 1   
    49    26    46 1   
    50    27    28 ar  
    51    27    47 1   
    52    28    48 1   
@<TRIPOS>SUBSTRUCTURE
     1 1G0         1 TEMP              0 ****  ****    0 ROOT
