@<TRIPOS>MOLECULE
1G0
   48    52     1     0     0
SMALL
No Charge or Current Charge


@<TRIPOS>ATOM
      1 O1          -5.7730     4.3130    -0.3350 oh         1 1G0      -0.639000
      2 C2          -5.6310     3.0040     0.1830 cy         1 1G0       0.152300
      3 C4          -5.1110     1.9260    -0.8200 cy         1 1G0      -0.097400
      4 C5          -4.4270     1.2580     0.4270 cy         1 1G0      -0.093000
      5 C7          -4.3160     2.7280     0.9770 cy         1 1G0      -0.097400
      6 C8          -3.2180     0.3760     0.2720 cc         1 1G0       0.366800
      7 N9          -2.0080     0.6680     0.7490 nd         1 1G0      -0.552300
      8 C10         -1.1610    -0.3970     0.4210 cd         1 1G0       0.116400
      9 C11         -1.8940    -1.3550    -0.2560 cc         1 1G0      -0.233000
     10 C12         -1.6780    -2.6680    -0.7130 cc         1 1G0       0.671900
     11 N13         -0.5590    -3.3320    -0.4750 nv         1 1G0      -1.055900
     12 N14         -2.5700    -3.4190    -1.2920 nd         1 1G0      -0.783000
     13 C15         -3.8430    -2.8230    -1.4170 cd         1 1G0       0.358900
     14 C16         -4.1650    -1.5480    -0.9280 cc         1 1G0      -0.228000
     15 N17         -3.1100    -0.8290    -0.3750 na         1 1G0       0.090200
     16 C18          0.2950    -0.2950     0.6780 ca         1 1G0      -0.053800
     17 C19          0.7590     0.5130     1.7410 ca         1 1G0      -0.062500
     18 C20          2.1350     0.6700     1.9810 ca         1 1G0      -0.165000
     19 C21          3.0710     0.0580     1.1360 ca         1 1G0       0.140100
     20 O22          4.4130     0.2210     1.3960 os         1 1G0      -0.255200
     21 C23          5.3530     0.3900     0.4030 ca         1 1G0       0.098100
     22 C24          5.0740     1.1670    -0.7400 ca         1 1G0      -0.120500
     23 C25          6.0570     1.3350    -1.7320 ca         1 1G0      -0.099500
     24 C26          7.3200     0.7360    -1.5790 ca         1 1G0      -0.114000
     25 C27          7.6030    -0.0270    -0.4330 ca         1 1G0      -0.099500
     26 C28          6.6200    -0.1960     0.5590 ca         1 1G0      -0.120500
     27 C29          2.6270    -0.7130     0.0480 ca         1 1G0      -0.165000
     28 C30          1.2500    -0.8720    -0.1890 ca         1 1G0      -0.062500
     29 H1          -6.5600     4.3120    -0.9240 ho         1 1G0       0.445000
     30 H2          -6.5400     2.7060     0.7220 h1         1 1G0       0.031700
     31 H3          -5.8820     1.3310    -1.3220 hc         1 1G0       0.069950
     32 H4          -4.4110     2.3000    -1.5770 hc         1 1G0       0.069950
     33 H5          -5.1210     0.6440     1.0150 hc         1 1G0       0.064700
     34 H6          -3.4400     3.2850     0.6210 hc         1 1G0       0.069950
     35 H7          -4.3810     2.8390     2.0640 hc         1 1G0       0.069950
     36 H8          -0.0310    -3.0260     0.3320 hn         1 1G0       0.490500
     37 H9          -0.6500    -4.3320    -0.5920 hn         1 1G0       0.490500
     38 H10         -4.5970    -3.4390    -1.8920 h4         1 1G0       0.028100
     39 H11         -5.1440    -1.0920    -0.9750 h4         1 1G0       0.153000
     40 H12          0.0490     1.0040     2.4030 ha         1 1G0       0.126500
     41 H13          2.4760     1.2740     2.8170 ha         1 1G0       0.129500
     42 H14          4.1030     1.6420    -0.8590 ha         1 1G0       0.129000
     43 H15          5.8410     1.9320    -2.6160 ha         1 1G0       0.116500
     44 H16          8.0800     0.8680    -2.3460 ha         1 1G0       0.116000
     45 H17          8.5820    -0.4860    -0.3130 ha         1 1G0       0.116500
     46 H18          6.8380    -0.7840     1.4470 ha         1 1G0       0.129000
     47 H19          3.3440    -1.1770    -0.6240 ha         1 1G0       0.129500
     48 H20          0.9370    -1.4040    -1.0820 ha         1 1G0       0.126500
@<TRIPOS>BOND
     1     1     2 1   
     2     1    29 1   
     3     2     3 1   
     4     2     5 1   
     5     2    30 1   
     6     3     4 1   
     7     3    31 1   
     8     3    32 1   
     9     4     5 1   
    10     4     6 1   
    11     4    33 1   
    12     5    34 1   
    13     5    35 1   
    14     6     7 2   
    15     6    15 1   
    16     7     8 1   
    17     8     9 2   
    18     8    16 1   
    19     9    10 1   
    20     9    15 1   
    21    10    11 1   
    22    10    12 2   
    23    11    36 1   
    24    11    37 1   
    25    12    13 1   
    26    13    14 2   
    27    13    38 1   
    28    14    15 1   
    29    14    39 1   
    30    16    17 ar  
    31    16    28 ar  
    32    17    18 ar  
    33    17    40 1   
    34    18    19 ar  
    35    18    41 1   
    36    19    20 1   
    37    19    27 ar  
    38    20    21 1   
    39    21    22 ar  
    40    21    26 ar  
    41    22    23 ar  
    42    22    42 1   
    43    23    24 ar  
    44    23    43 1   
    45    24    25 ar  
    46    24    44 1   
    47    25    26 ar  
    48    25    45 1   
    49    26    46 1   
    50    27    28 ar  
    51    27    47 1   
    52    28    48 1   
@<TRIPOS>SUBSTRUCTURE
     1 1G0         1 TEMP              0 ****  ****    0 ROOT
