@<TRIPOS>MOLECULE
1G1
   95    96     1     0     0
SMALL
No Charge or Current Charge


@<TRIPOS>ATOM
      1 C12         11.0180  -138.2900    21.3120 c          1 1G1       0.613100
      2 O13         11.4230  -139.4020    20.9940 o          1 1G1      -0.563100
      3 C8          11.4750  -137.5530    22.6030 c3         1 1G1       0.090500
      4 N9          10.9770  -138.2410    23.8160 n2         1 1G1      -0.404200
      5 N10         10.5930  -137.5180    24.7500 n1         1 1G1       0.232000
      6 N11         10.3790  -136.8420    25.6410 n1         1 1G1      -0.069000
      7 C7          13.0200  -137.4150    22.6500 c3         1 1G1      -0.043100
      8 C3          13.5070  -136.5140    23.7820 ca         1 1G1      -0.100300
      9 C2          13.3400  -135.1180    23.6970 ca         1 1G1      -0.107500
     10 C1          13.7750  -134.2860    24.7430 ca         1 1G1      -0.108000
     11 C4          14.1160  -137.0690    24.9250 ca         1 1G1      -0.107500
     12 C5          14.5510  -136.2370    25.9710 ca         1 1G1      -0.108000
     13 C6          14.3800  -134.8450    25.8810 ca         1 1G1      -0.104000
     14 N14         10.1270  -137.5940    20.5180 ns         1 1G1      -0.493900
     15 C15          9.6180  -138.0840    19.2190 c3         1 1G1       0.035700
     16 C25         10.6820  -137.8370    18.1080 c          1 1G1       0.596100
     17 O26         11.4880  -136.9140    18.1460 o          1 1G1      -0.620100
     18 C16          8.2560  -137.4000    18.9140 c3         1 1G1      -0.082400
     19 C17          7.5230  -137.8560    17.6180 c3         1 1G1      -0.061700
     20 C18          7.1940  -139.3690    17.6150 c3         1 1G1      -0.090600
     21 C19          6.2360  -137.0300    17.3950 c3         1 1G1      -0.090600
     22 N27         10.6670  -138.7500    17.0750 ns         1 1G1      -0.472900
     23 C28         11.5590  -138.7250    15.8950 c3         1 1G1       0.026700
     24 C33         10.7140  -138.8650    14.6010 c          1 1G1       0.589100
     25 O34          9.5510  -139.2520    14.5970 o          1 1G1      -0.609100
     26 C29         12.6400  -139.8360    15.9900 c3         1 1G1      -0.077400
     27 C30         13.6670  -139.6770    17.1470 c3         1 1G1      -0.062700
     28 C31         14.5420  -140.9440    17.2830 c3         1 1G1      -0.089600
     29 C32         14.5550  -138.4200    16.9830 c3         1 1G1      -0.089600
     30 O50         15.3720  -138.9750    10.7500 o          1 1G1      -0.523500
     31 S48         14.1560  -139.0250    11.5690 s6         1 1G1       1.071000
     32 O49         14.0680  -138.1860    12.7700 o          1 1G1      -0.523500
     33 C51         13.9120  -140.7260    12.0720 c3         1 1G1      -0.333100
     34 C46         11.3140  -138.9980    10.9930 c3         1 1G1      -0.054400
     35 C36         10.7130  -138.1870    12.1760 c3         1 1G1       0.099700
     36 C37         10.6570  -136.6530    11.9500 c3         1 1G1      -0.044100
     37 C38         10.2330  -135.8970    13.2080 ca         1 1G1      -0.094300
     38 C43         11.2050  -135.2990    14.0340 ca         1 1G1      -0.107000
     39 C42         10.8280  -134.6600    15.2270 ca         1 1G1      -0.099000
     40 C41          9.4740  -134.6050    15.6090 ca         1 1G1      -0.077300
     41 C44          9.0730  -133.9170    16.9070 c3         1 1G1       0.193100
     42 N45          8.8240  -132.4760    16.7050 n8         1 1G1      -1.008200
     43 C40          8.5010  -135.1990    14.7810 ca         1 1G1      -0.099000
     44 C39          8.8790  -135.8440    13.5890 ca         1 1G1      -0.107000
     45 N35         11.3680  -138.4870    13.4490 ns         1 1G1      -0.511900
     46 H43         11.0570  -136.5390    22.5470 h1         1 1G1       0.048700
     47 H45         13.4690  -138.4130    22.7290 hc         1 1G1       0.074200
     48 H46         13.3650  -137.0070    21.6910 hc         1 1G1       0.074200
     49 H47         12.8710  -134.6750    22.8200 ha         1 1G1       0.115000
     50 H48         13.6420  -133.2090    24.6720 ha         1 1G1       0.114500
     51 H49         14.2470  -138.1460    25.0070 ha         1 1G1       0.115000
     52 H50         15.0180  -136.6710    26.8520 ha         1 1G1       0.114500
     53 H51         14.7160  -134.2020    26.6910 ha         1 1G1       0.115000
     54 H42          9.8500  -136.6720    20.8330 hn         1 1G1       0.315500
     55 H32          9.4650  -139.1680    19.3000 h1         1 1G1       0.082700
     56 H33          8.4200  -136.3170    18.8600 hc         1 1G1       0.050700
     57 H34          7.5860  -137.5660    19.7670 hc         1 1G1       0.050700
     58 H35          8.1780  -137.6510    16.7610 hc         1 1G1       0.066700
     59 H39          8.1000  -139.9820    17.6630 hc         1 1G1       0.035867
     60 H40          6.5580  -139.6310    18.4690 hc         1 1G1       0.035867
     61 H41          6.6610  -139.6440    16.6970 hc         1 1G1       0.035867
     62 H36          5.7600  -137.3030    16.4460 hc         1 1G1       0.035867
     63 H37          5.5150  -137.2030    18.2030 hc         1 1G1       0.035867
     64 H38          6.4590  -135.9570    17.3610 hc         1 1G1       0.035867
     65 H31          9.9440  -139.4590    17.1030 hn         1 1G1       0.330500
     66 H21         12.0460  -137.7450    15.8280 h1         1 1G1       0.103700
     67 H22         12.1310  -140.8030    16.0910 hc         1 1G1       0.042700
     68 H23         13.1940  -139.8820    15.0450 hc         1 1G1       0.042700
     69 H24         13.1110  -139.5720    18.0870 hc         1 1G1       0.074700
     70 H28         15.2350  -140.8490    18.1270 hc         1 1G1       0.034033
     71 H29         13.9190  -141.8300    17.4590 hc         1 1G1       0.034033
     72 H30         15.1300  -141.1130    16.3720 hc         1 1G1       0.034033
     73 H25         15.2800  -138.3510    17.8030 hc         1 1G1       0.034033
     74 H26         15.1100  -138.4550    16.0380 hc         1 1G1       0.034033
     75 H27         13.9570  -137.5020    16.9950 hc         1 1G1       0.034033
     76 H1          12.9950  -140.7770    12.6670 h1         1 1G1       0.107033
     77 H2          13.8330  -141.3350    11.1650 h1         1 1G1       0.107033
     78 H3          14.7820  -141.0180    12.6700 h1         1 1G1       0.107033
     79 H4          12.9520  -139.1910     9.5680 h1         1 1G1       0.103200
     80 H5          12.8320  -137.5660    10.2560 h1         1 1G1       0.103200
     81 H6          10.6340  -138.8680    10.1420 hc         1 1G1       0.057700
     82 H7          11.2670  -140.0670    11.2350 hc         1 1G1       0.057700
     83 H8           9.6680  -138.5160    12.2620 h1         1 1G1       0.086700
     84 H9          11.6410  -136.2910    11.6310 hc         1 1G1       0.053200
     85 H10          9.9700  -136.4350    11.1230 hc         1 1G1       0.053200
     86 H11         12.2570  -135.3420    13.7600 ha         1 1G1       0.115500
     87 H12         11.5910  -134.2110    15.8590 ha         1 1G1       0.122000
     88 H13          8.1620  -134.3800    17.3100 h1         1 1G1       0.042200
     89 H14          9.8720  -134.0410    17.6520 h1         1 1G1       0.042200
     90 H15          8.6540  -132.0360    17.6170 hn         1 1G1       0.397000
     91 H16          9.6910  -132.0370    16.3780 hn         1 1G1       0.397000
     92 H18          7.4520  -135.1640    15.0640 ha         1 1G1       0.122000
     93 H19          8.1190  -136.3120    12.9680 ha         1 1G1       0.115500
     94 H20         12.3320  -138.1850    13.5590 hn         1 1G1       0.341500
     95 C47         12.7500  -138.6320    10.4890 c3         1 1G1      -0.293400
@<TRIPOS>BOND
     1     1     2 2   
     2     1     3 1   
     3     1    14 1   
     4     3     4 1   
     5     3     7 1   
     6     3    46 1   
     7     4     5 1   
     8     5     6 3   
     9     7     8 1   
    10     7    47 1   
    11     7    48 1   
    12     8     9 ar  
    13     8    11 ar  
    14     9    10 ar  
    15     9    49 1   
    16    10    13 ar  
    17    10    50 1   
    18    11    12 ar  
    19    11    51 1   
    20    12    13 ar  
    21    12    52 1   
    22    13    53 1   
    23    14    15 1   
    24    14    54 1   
    25    15    16 1   
    26    15    18 1   
    27    15    55 1   
    28    16    17 2   
    29    16    22 1   
    30    18    19 1   
    31    18    56 1   
    32    18    57 1   
    33    19    20 1   
    34    19    21 1   
    35    19    58 1   
    36    20    59 1   
    37    20    60 1   
    38    20    61 1   
    39    21    62 1   
    40    21    63 1   
    41    21    64 1   
    42    22    23 1   
    43    22    65 1   
    44    23    24 1   
    45    23    26 1   
    46    23    66 1   
    47    24    25 2   
    48    24    45 1   
    49    26    27 1   
    50    26    67 1   
    51    26    68 1   
    52    27    28 1   
    53    27    29 1   
    54    27    69 1   
    55    28    70 1   
    56    28    71 1   
    57    28    72 1   
    58    29    73 1   
    59    29    74 1   
    60    29    75 1   
    61    30    31 2   
    62    31    32 2   
    63    31    33 1   
    64    31    95 1   
    65    33    76 1   
    66    33    77 1   
    67    33    78 1   
    68    34    35 1   
    69    34    81 1   
    70    34    82 1   
    71    34    95 1   
    72    35    36 1   
    73    35    45 1   
    74    35    83 1   
    75    36    37 1   
    76    36    84 1   
    77    36    85 1   
    78    37    38 ar  
    79    37    44 ar  
    80    38    39 ar  
    81    38    86 1   
    82    39    40 ar  
    83    39    87 1   
    84    40    41 1   
    85    40    43 ar  
    86    41    42 1   
    87    41    88 1   
    88    41    89 1   
    89    42    90 1   
    90    42    91 1   
    91    43    44 ar  
    92    43    92 1   
    93    44    93 1   
    94    45    94 1   
    95    79    95 1   
    96    80    95 1   
@<TRIPOS>SUBSTRUCTURE
     1 1G1         1 TEMP              0 ****  ****    0 ROOT
