@<TRIPOS>MOLECULE
1G1
   95    96     1     0     0
SMALL
bcc


@<TRIPOS>ATOM
      1 C12         10.7890  -138.5040    21.1140 c          1 1G1       0.680100
      2 O13         11.2660  -139.5290    20.6620 o          1 1G1      -0.563100
      3 C8          11.3650  -137.8160    22.3420 c3         1 1G1       0.090500
      4 N9          11.8900  -138.8530    23.2240 n2         1 1G1      -0.404200
      5 N10         11.9030  -138.5900    24.4130 n1         1 1G1       0.232000
      6 N11         11.9510  -138.4580    25.5270 n1         1 1G1      -0.069000
      7 C7          12.4800  -136.8600    21.8720 c3         1 1G1      -0.043100
      8 C3          13.1410  -136.1850    23.0380 ca         1 1G1      -0.100300
      9 C2          12.5360  -135.0930    23.6580 ca         1 1G1      -0.125500
     10 C1          13.1050  -134.5120    24.7820 ca         1 1G1      -0.126000
     11 C4          14.3320  -136.6790    23.5630 ca         1 1G1      -0.125500
     12 C5          14.9030  -136.1010    24.6880 ca         1 1G1      -0.126000
     13 C6          14.2900  -135.0170    25.3020 ca         1 1G1      -0.122000
     14 N14          9.7670  -137.8480    20.5430 ns         1 1G1      -0.560900
     15 C15          9.3340  -138.1580    19.2010 c3         1 1G1       0.035700
     16 C25         10.4900  -137.8940    18.2310 c          1 1G1       0.663100
     17 O26         11.1740  -136.8910    18.3390 o          1 1G1      -0.620100
     18 C16          8.1360  -137.2730    18.8510 c3         1 1G1      -0.082400
     19 C17          7.5030  -137.5240    17.4810 c3         1 1G1      -0.061700
     20 C18          6.9650  -138.9440    17.3390 c3         1 1G1      -0.090600
     21 C19          6.3860  -136.5090    17.2560 c3         1 1G1      -0.090600
     22 N27         10.6520  -138.8280    17.2840 ns         1 1G1      -0.539900
     23 C28         11.5550  -138.7140    16.1700 c3         1 1G1       0.026700
     24 C33         10.7540  -138.8320    14.8700 c          1 1G1       0.656100
     25 O34          9.5910  -139.1960    14.8630 o          1 1G1      -0.609100
     26 C29         12.6650  -139.7730    16.2280 c3         1 1G1      -0.077400
     27 C30         13.5390  -139.7180    17.4810 c3         1 1G1      -0.062700
     28 C31         14.4730  -140.9240    17.5030 c3         1 1G1      -0.089600
     29 C32         14.3420  -138.4240    17.5640 c3         1 1G1      -0.089600
     30 O50         15.2570  -139.0370    10.7410 o          1 1G1      -0.594300
     31 S48         14.1270  -139.0800    11.6690 s6         1 1G1       0.991000
     32 O49         14.1310  -138.0980    12.7640 o          1 1G1      -0.594300
     33 C51         14.0360  -140.7100    12.3720 c3         1 1G1      -0.222300
     34 C46         11.2900  -139.1620    11.3620 c3         1 1G1      -0.054400
     35 C36         10.8190  -138.2400    12.4890 c3         1 1G1       0.099700
     36 C37         10.9410  -136.7430    12.1510 c3         1 1G1      -0.044100
     37 C38         10.5760  -135.8960    13.3370 ca         1 1G1      -0.094300
     38 C43         11.5670  -135.3030    14.1150 ca         1 1G1      -0.125000
     39 C42         11.2470  -134.6190    15.2780 ca         1 1G1      -0.117000
     40 C41          9.9280  -134.5090    15.7060 ca         1 1G1      -0.077300
     41 C44          9.6190  -133.8320    17.0170 c3         1 1G1       0.193100
     42 N45          8.2850  -133.2630    17.0580 n8         1 1G1      -0.897800
     43 C40          8.9340  -135.0790    14.9160 ca         1 1G1      -0.117000
     44 C39          9.2550  -135.7630    13.7520 ca         1 1G1      -0.125000
     45 N35         11.4510  -138.5200    13.7620 ns         1 1G1      -0.578900
     46 H43         10.5850  -137.2360    22.8460 h1         1 1G1       0.048700
     47 H45         13.2090  -137.4300    21.2940 hc         1 1G1       0.074200
     48 H46         12.0360  -136.1250    21.1960 hc         1 1G1       0.074200
     49 H47         11.6100  -134.6950    23.2590 ha         1 1G1       0.133000
     50 H48         12.6240  -133.6640    25.2520 ha         1 1G1       0.132500
     51 H49         14.8160  -137.5250    23.0890 ha         1 1G1       0.133000
     52 H50         15.8300  -136.4970    25.0850 ha         1 1G1       0.132500
     53 H51         14.7360  -134.5650    26.1800 ha         1 1G1       0.133000
     54 H42          9.4760  -136.9670    20.9380 hn         1 1G1       0.315500
     55 H32          9.0340  -139.2090    19.1620 h1         1 1G1       0.082700
     56 H33          8.4500  -136.2260    18.9120 hc         1 1G1       0.050700
     57 H34          7.3740  -137.4180    19.6250 hc         1 1G1       0.050700
     58 H35          8.2570  -137.3660    16.7020 hc         1 1G1       0.066700
     59 H39          7.7460  -139.7030    17.4110 hc         1 1G1       0.035867
     60 H40          6.2210  -139.1610    18.1100 hc         1 1G1       0.035867
     61 H41          6.4860  -139.0760    16.3680 hc         1 1G1       0.035867
     62 H36          5.9290  -136.6460    16.2750 hc         1 1G1       0.035867
     63 H37          5.5990  -136.6200    18.0080 hc         1 1G1       0.035867
     64 H38          6.7630  -135.4860    17.3050 hc         1 1G1       0.035867
     65 H31         10.0070  -139.6020    17.2610 hn         1 1G1       0.330500
     66 H21         11.9890  -137.7110    16.2030 h1         1 1G1       0.103700
     67 H22         12.2040  -140.7630    16.1490 hc         1 1G1       0.042700
     68 H23         13.3100  -139.6660    15.3500 hc         1 1G1       0.042700
     69 H24         12.8860  -139.7750    18.3580 hc         1 1G1       0.074700
     70 H28         15.0870  -140.9280    18.4050 hc         1 1G1       0.034033
     71 H29         13.9180  -141.8630    17.4750 hc         1 1G1       0.034033
     72 H30         15.1470  -140.9100    16.6430 hc         1 1G1       0.034033
     73 H25         14.9700  -138.4170    18.4570 hc         1 1G1       0.034033
     74 H26         15.0020  -138.3190    16.6980 hc         1 1G1       0.034033
     75 H27         13.7010  -137.5440    17.6130 hc         1 1G1       0.034033
     76 H1          13.1980  -140.7810    13.0610 h1         1 1G1       0.107033
     77 H2          13.9360  -141.4430    11.5740 h1         1 1G1       0.107033
     78 H3          14.9720  -140.8720    12.9060 h1         1 1G1       0.107033
     79 H4          12.7610  -139.6060     9.8650 h1         1 1G1       0.103200
     80 H5          12.7080  -137.8980    10.2710 h1         1 1G1       0.103200
     81 H6          10.5600  -139.0830    10.5530 hc         1 1G1       0.057700
     82 H7          11.2310  -140.1970    11.7050 hc         1 1G1       0.057700
     83 H8           9.7610  -138.4630    12.6280 h1         1 1G1       0.086700
     84 H9          11.9620  -136.5070    11.8410 hc         1 1G1       0.053200
     85 H10         10.2950  -136.5320    11.2960 hc         1 1G1       0.053200
     86 H11         12.6050  -135.3850    13.8130 ha         1 1G1       0.133500
     87 H12         12.0400  -134.1680    15.8650 ha         1 1G1       0.140000
     88 H13          9.6900  -134.5880    17.8040 h1         1 1G1       0.042200
     89 H14         10.4160  -133.1070    17.2290 h1         1 1G1       0.042200
     90 H15          8.0770  -132.9600    18.0000 hn         1 1G1       0.341800
     91 H16          8.2460  -132.4350    16.4770 hn         1 1G1       0.341800
     92 H18          7.9000  -134.9960    15.2250 ha         1 1G1       0.140000
     93 H19          8.4610  -136.2140    13.1650 ha         1 1G1       0.133500
     94 H20         12.3970  -138.1810    13.8680 hn         1 1G1       0.341500
     95 C47         12.6340  -138.9040    10.6910 c3         1 1G1      -0.182600
@<TRIPOS>BOND
     1     1     2 2   
     2     1     3 1   
     3     1    14 1   
     4     3     4 1   
     5     3     7 1   
     6     3    46 1   
     7     4     5 1   
     8     5     6 3   
     9     7     8 1   
    10     7    47 1   
    11     7    48 1   
    12     8     9 ar  
    13     8    11 ar  
    14     9    10 ar  
    15     9    49 1   
    16    10    13 ar  
    17    10    50 1   
    18    11    12 ar  
    19    11    51 1   
    20    12    13 ar  
    21    12    52 1   
    22    13    53 1   
    23    14    15 1   
    24    14    54 1   
    25    15    16 1   
    26    15    18 1   
    27    15    55 1   
    28    16    17 2   
    29    16    22 1   
    30    18    19 1   
    31    18    56 1   
    32    18    57 1   
    33    19    20 1   
    34    19    21 1   
    35    19    58 1   
    36    20    59 1   
    37    20    60 1   
    38    20    61 1   
    39    21    62 1   
    40    21    63 1   
    41    21    64 1   
    42    22    23 1   
    43    22    65 1   
    44    23    24 1   
    45    23    26 1   
    46    23    66 1   
    47    24    25 2   
    48    24    45 1   
    49    26    27 1   
    50    26    67 1   
    51    26    68 1   
    52    27    28 1   
    53    27    29 1   
    54    27    69 1   
    55    28    70 1   
    56    28    71 1   
    57    28    72 1   
    58    29    73 1   
    59    29    74 1   
    60    29    75 1   
    61    30    31 2   
    62    31    32 2   
    63    31    33 1   
    64    31    95 1   
    65    33    76 1   
    66    33    77 1   
    67    33    78 1   
    68    34    35 1   
    69    34    81 1   
    70    34    82 1   
    71    34    95 1   
    72    35    36 1   
    73    35    45 1   
    74    35    83 1   
    75    36    37 1   
    76    36    84 1   
    77    36    85 1   
    78    37    38 ar  
    79    37    44 ar  
    80    38    39 ar  
    81    38    86 1   
    82    39    40 ar  
    83    39    87 1   
    84    40    41 1   
    85    40    43 ar  
    86    41    42 1   
    87    41    88 1   
    88    41    89 1   
    89    42    90 1   
    90    42    91 1   
    91    43    44 ar  
    92    43    92 1   
    93    44    93 1   
    94    45    94 1   
    95    79    95 1   
    96    80    95 1   
@<TRIPOS>SUBSTRUCTURE
     1 1G1         1 TEMP              0 ****  ****    0 ROOT
