@<TRIPOS>MOLECULE
1G2
   22    22     1     0     0
SMALL
bcc


@<TRIPOS>ATOM
      1 C12          2.4500     1.0130     0.0550 c          1 1G2       0.923600
      2 O13          3.3830     0.2380     0.3160 o          1 1G2      -0.819300
      3 C8           1.0450     0.3820    -0.1690 c3         1 1G2       0.033500
      4 N9           0.9930    -1.0440     0.1610 n2         1 1G2      -0.445200
      5 N10          1.7740    -1.7780    -0.4060 n1         1 1G2       0.273000
      6 N11          2.4330    -2.5550    -0.8840 n1         1 1G2      -0.168000
      7 C7          -0.0350     1.0800     0.6530 c3         1 1G2      -0.008100
      8 C3          -1.4190     0.5830     0.3450 ca         1 1G2      -0.043300
      9 C2          -2.0260    -0.3960     1.1270 ca         1 1G2      -0.123500
     10 C1          -3.2990    -0.8640     0.8240 ca         1 1G2      -0.140500
     11 C4          -2.1180     1.0810    -0.7540 ca         1 1G2      -0.123500
     12 C5          -3.3890     0.6150    -1.0630 ca         1 1G2      -0.140500
     13 C6          -3.9840    -0.3610    -0.2730 ca         1 1G2      -0.154000
     14 H43          0.8010     0.5130    -1.2330 h1         1 1G2       0.029700
     15 H45          0.1820     0.9480     1.7170 hc         1 1G2       0.061700
     16 H46          0.0330     2.1470     0.4420 hc         1 1G2       0.061700
     17 H47         -1.4980    -0.7930     1.9860 ha         1 1G2       0.133000
     18 H48         -3.7560    -1.6230     1.4480 ha         1 1G2       0.113000
     19 H49         -1.6640     1.8470    -1.3720 ha         1 1G2       0.133000
     20 H50         -3.9180     1.0190    -1.9170 ha         1 1G2       0.113000
     21 H51         -4.9770    -0.7230    -0.5090 ha         1 1G2       0.110000
     22 OXT          2.4930     2.2480    -0.0840 o          1 1G2      -0.819300
@<TRIPOS>BOND
     1     1     2 1   
     2     1     3 1   
     3     1    22 1   
     4     3     4 1   
     5     3     7 1   
     6     3    14 1   
     7     4     5 1   
     8     5     6 3   
     9     7     8 1   
    10     7    15 1   
    11     7    16 1   
    12     8     9 ar  
    13     8    11 ar  
    14     9    10 ar  
    15     9    17 1   
    16    10    13 ar  
    17    10    18 1   
    18    11    12 ar  
    19    11    19 1   
    20    12    13 ar  
    21    12    20 1   
    22    13    21 1   
@<TRIPOS>SUBSTRUCTURE
     1 1G2         1 TEMP              0 ****  ****    0 ROOT
