@<TRIPOS>MOLECULE
1G2
   22    22     1     0     0
SMALL
No Charge or Current Charge


@<TRIPOS>ATOM
      1 C12          2.4900     1.1240     0.1220 c          1 1G2       0.713000
      2 O13          2.8300     1.4170     1.2620 o          1 1G2      -0.714000
      3 C8           1.1080     0.4180    -0.1060 c3         1 1G2       0.033500
      4 N9           1.1870    -1.0510     0.0930 n2         1 1G2      -0.445200
      5 N10          1.6390    -1.7120    -0.8550 n1         1 1G2       0.273000
      6 N11          1.9660    -2.4230    -1.6800 n1         1 1G2      -0.168000
      7 C7          -0.0060     1.0110     0.7950 c3         1 1G2      -0.008100
      8 C3          -1.4020     0.5170     0.4240 ca         1 1G2      -0.043300
      9 C2          -2.0690    -0.4220     1.2350 ca         1 1G2      -0.105500
     10 C1          -3.3550    -0.8730     0.8900 ca         1 1G2      -0.122500
     11 C4          -2.0380     1.0010    -0.7370 ca         1 1G2      -0.105500
     12 C5          -3.3240     0.5500    -1.0820 ca         1 1G2      -0.122500
     13 C6          -3.9830    -0.3870    -0.2690 ca         1 1G2      -0.136000
     14 H43          0.8240     0.6320    -1.1450 h1         1 1G2       0.029700
     15 H45          0.2150     0.7840     1.8460 hc         1 1G2       0.061700
     16 H46          0.0210     2.1040     0.7120 hc         1 1G2       0.061700
     17 H47         -1.5890    -0.8070     2.1330 ha         1 1G2       0.115000
     18 H48         -3.8640    -1.5990     1.5200 ha         1 1G2       0.095000
     19 H49         -1.5360     1.7270    -1.3720 ha         1 1G2       0.115000
     20 H50         -3.8100     0.9270    -1.9800 ha         1 1G2       0.095000
     21 H51         -4.9780    -0.7360    -0.5360 ha         1 1G2       0.092000
     22 OXT          3.1760     1.3740    -0.8610 o          1 1G2      -0.714000
@<TRIPOS>BOND
     1     1     2 1   
     2     1     3 1   
     3     1    22 1   
     4     3     4 1   
     5     3     7 1   
     6     3    14 1   
     7     4     5 1   
     8     5     6 3   
     9     7     8 1   
    10     7    15 1   
    11     7    16 1   
    12     8     9 ar  
    13     8    11 ar  
    14     9    10 ar  
    15     9    17 1   
    16    10    13 ar  
    17    10    18 1   
    18    11    12 ar  
    19    11    19 1   
    20    12    13 ar  
    21    12    20 1   
    22    13    21 1   
@<TRIPOS>SUBSTRUCTURE
     1 1G2         1 TEMP              0 ****  ****    0 ROOT
