@<TRIPOS>MOLECULE
1G3
   37    37     1     0     0
SMALL
No Charge or Current Charge


@<TRIPOS>ATOM
      1 O50          4.9800    -0.1970    -1.1950 o          1 1G3      -0.519000
      2 S48          4.5910     0.0050     0.2060 s6         1 1G3       1.093000
      3 O49          4.6970    -1.1110     1.1540 o          1 1G3      -0.519000
      4 C51          5.5590     1.3660     0.8520 c3         1 1G3      -0.336100
      5 C47          2.8840     0.6100     0.2360 c3         1 1G3      -0.302400
      6 C46          1.8480    -0.4250    -0.2940 c3         1 1G3      -0.096400
      7 C36          0.3730     0.0300    -0.1730 c3         1 1G3       0.187500
      8 C37         -0.6190    -1.0720    -0.6330 c3         1 1G3      -0.023100
      9 C38         -2.0850    -0.7380    -0.3620 ca         1 1G3      -0.065300
     10 C43         -2.5790    -0.7310     0.9570 ca         1 1G3      -0.102500
     11 C42         -3.9310    -0.4380     1.2100 ca         1 1G3      -0.099500
     12 C41         -4.8090    -0.1520     0.1470 ca         1 1G3      -0.090300
     13 C44         -6.2760     0.1540     0.4210 c3         1 1G3       0.204100
     14 N45         -6.4830     1.5800     0.7330 n8         1 1G3      -1.011200
     15 C40         -4.3170    -0.1620    -1.1730 ca         1 1G3      -0.099500
     16 C39         -2.9650    -0.4550    -1.4260 ca         1 1G3      -0.102500
     17 N35          0.1670     1.2840    -0.9260 n8         1 1G3      -1.022200
     18 H1           5.4070     2.2270     0.1920 h1         1 1G3       0.103033
     19 H2           5.2040     1.5760     1.8670 h1         1 1G3       0.103033
     20 H3           6.6080     1.0520     0.8570 h1         1 1G3       0.103033
     21 H4           2.6710     0.8680     1.2800 h1         1 1G3       0.091700
     22 H5           2.8790     1.5220    -0.3720 h1         1 1G3       0.091700
     23 H6           2.0710    -0.6660    -1.3430 hc         1 1G3       0.065200
     24 H7           1.9650    -1.3610     0.2690 hc         1 1G3       0.065200
     25 H8           0.1750     0.2390     0.8890 h1         1 1G3       0.060700
     26 H9          -0.4620    -1.2780    -1.6990 hc         1 1G3       0.048200
     27 H10         -0.3710    -2.0050    -0.1120 hc         1 1G3       0.048200
     28 H11         -1.9140    -0.9540     1.7890 ha         1 1G3       0.109000
     29 H12         -4.2970    -0.4350     2.2340 ha         1 1G3       0.117000
     30 H13         -6.8810    -0.1070    -0.4590 h1         1 1G3       0.032200
     31 H14         -6.6300    -0.4490     1.2680 h1         1 1G3       0.032200
     32 H15         -6.2020     2.1360    -0.0830 hn         1 1G3       0.400000
     33 H16         -7.4920     1.7580     0.8130 hn         1 1G3       0.400000
     34 H18         -4.9830     0.0550    -2.0060 ha         1 1G3       0.117000
     35 H19         -2.6010    -0.4590    -2.4510 ha         1 1G3       0.109000
     36 H20          0.8760     1.9600    -0.6250 hn         1 1G3       0.404500
     37 H21          0.3990     1.1180    -1.9110 hn         1 1G3       0.404500
@<TRIPOS>BOND
     1     1     2 2   
     2     2     3 2   
     3     2     4 1   
     4     2     5 1   
     5     4    18 1   
     6     4    19 1   
     7     4    20 1   
     8     5     6 1   
     9     5    21 1   
    10     5    22 1   
    11     6     7 1   
    12     6    23 1   
    13     6    24 1   
    14     7     8 1   
    15     7    17 1   
    16     7    25 1   
    17     8     9 1   
    18     8    26 1   
    19     8    27 1   
    20     9    10 ar  
    21     9    16 ar  
    22    10    11 ar  
    23    10    28 1   
    24    11    12 ar  
    25    11    29 1   
    26    12    13 1   
    27    12    15 ar  
    28    13    14 1   
    29    13    30 1   
    30    13    31 1   
    31    14    32 1   
    32    14    33 1   
    33    15    16 ar  
    34    15    34 1   
    35    16    35 1   
    36    17    36 1   
    37    17    37 1   
@<TRIPOS>SUBSTRUCTURE
     1 1G3         1 TEMP              0 ****  ****    0 ROOT
