@<TRIPOS>MOLECULE
1G3
   37    37     1     0     0
SMALL
bcc


@<TRIPOS>ATOM
      1 O50          4.8620    -0.3910    -1.0650 o          1 1G3      -0.589800
      2 S48          4.4580     0.0180     0.2780 s6         1 1G3       1.013000
      3 O49          4.5260    -0.9580     1.3560 o          1 1G3      -0.589800
      4 C51          5.4390     1.4370     0.7370 c3         1 1G3      -0.225300
      5 C47          2.7830     0.6560     0.1870 c3         1 1G3      -0.191600
      6 C46          1.8100    -0.4690    -0.1340 c3         1 1G3      -0.096400
      7 C36          0.3620     0.0350    -0.2510 c3         1 1G3       0.187500
      8 C37         -0.5810    -1.1570    -0.4670 c3         1 1G3      -0.023100
      9 C38         -2.0270    -0.7820    -0.3270 ca         1 1G3      -0.065300
     10 C43         -2.6320    -0.7580     0.9270 ca         1 1G3      -0.120500
     11 C42         -3.9550    -0.3790     1.0810 ca         1 1G3      -0.117500
     12 C41         -4.7210    -0.0190    -0.0240 ca         1 1G3      -0.090300
     13 C44         -6.1750     0.3470     0.1270 c3         1 1G3       0.204100
     14 N45         -6.4140     1.1100     1.3370 n8         1 1G3      -0.900800
     15 C40         -4.1180    -0.0390    -1.2760 ca         1 1G3      -0.117500
     16 C39         -2.7920    -0.4140    -1.4260 ca         1 1G3      -0.120500
     17 N35          0.1430     1.0240    -1.2830 n8         1 1G3      -0.911800
     18 H1           5.3580     2.2090    -0.0260 h1         1 1G3       0.103033
     19 H2           5.1190     1.8140     1.7050 h1         1 1G3       0.103033
     20 H3           6.4710     1.0970     0.8030 h1         1 1G3       0.103033
     21 H4           2.5550     1.1110     1.1540 h1         1 1G3       0.091700
     22 H5           2.7780     1.4350    -0.5790 h1         1 1G3       0.091700
     23 H6           2.1010    -0.9500    -1.0730 hc         1 1G3       0.065200
     24 H7           1.8730    -1.2290     0.6470 hc         1 1G3       0.065200
     25 H8           0.0840     0.4990     0.7020 h1         1 1G3       0.060700
     26 H9          -0.3920    -1.5830    -1.4580 hc         1 1G3       0.048200
     27 H10         -0.3310    -1.9390     0.2550 hc         1 1G3       0.048200
     28 H11         -2.0590    -1.0450     1.8020 ha         1 1G3       0.127000
     29 H12         -4.4040    -0.3570     2.0660 ha         1 1G3       0.135000
     30 H13         -6.5110     0.8440    -0.7950 h1         1 1G3       0.032200
     31 H14         -6.7630    -0.5730     0.1970 h1         1 1G3       0.032200
     32 H15         -6.0100     2.0330     1.2540 hn         1 1G3       0.344800
     33 H16         -7.4060     1.2330     1.4840 hn         1 1G3       0.344800
     34 H18         -4.6910     0.2460    -2.1510 ha         1 1G3       0.135000
     35 H19         -2.3460    -0.4140    -2.4130 ha         1 1G3       0.127000
     36 H20          0.5320     1.9250    -1.0500 hn         1 1G3       0.349300
     37 H21          0.5320     0.7300    -2.1690 hn         1 1G3       0.349300
@<TRIPOS>BOND
     1     1     2 2   
     2     2     3 2   
     3     2     4 1   
     4     2     5 1   
     5     4    18 1   
     6     4    19 1   
     7     4    20 1   
     8     5     6 1   
     9     5    21 1   
    10     5    22 1   
    11     6     7 1   
    12     6    23 1   
    13     6    24 1   
    14     7     8 1   
    15     7    17 1   
    16     7    25 1   
    17     8     9 1   
    18     8    26 1   
    19     8    27 1   
    20     9    10 ar  
    21     9    16 ar  
    22    10    11 ar  
    23    10    28 1   
    24    11    12 ar  
    25    11    29 1   
    26    12    13 1   
    27    12    15 ar  
    28    13    14 1   
    29    13    30 1   
    30    13    31 1   
    31    14    32 1   
    32    14    33 1   
    33    15    16 ar  
    34    15    34 1   
    35    16    35 1   
    36    17    36 1   
    37    17    37 1   
@<TRIPOS>SUBSTRUCTURE
     1 1G3         1 TEMP              0 ****  ****    0 ROOT
