@<TRIPOS>MOLECULE
1G4
   43    45     1     0     0
SMALL
abcg2


@<TRIPOS>ATOM
      1 OB           0.2140    -2.6870     0.4870 o          1 1G4      -0.569000
      2 CB           0.1710    -1.4920     0.7590 c          1 1G4       0.530000
      3 CAB         -1.1580    -0.7370     0.7430 c6         1 1G4       0.094500
      4 CBB         -1.9460    -1.0790    -0.5250 c3         1 1G4      -0.019100
      5 CGB         -3.3430    -0.5270    -0.5010 ca         1 1G4      -0.107300
      6 CD4         -3.6820     0.6260    -1.1980 ca         1 1G4      -0.063000
      7 CE4         -4.9690     1.1450    -1.1640 ca         1 1G4      -0.173500
      8 CZB         -5.9550     0.5100    -0.4160 ca         1 1G4       0.137100
      9 OHB         -7.2240     0.9650    -0.3440 oh         1 1G4      -0.534100
     10 CE3         -5.6340    -0.6480     0.2900 ca         1 1G4      -0.173500
     11 CD3         -4.3450    -1.1520     0.2400 ca         1 1G4      -0.063000
     12 NB          -1.0650     0.7000     0.9050 n7         1 1G4      -0.850400
     13 CA          -0.0490     1.0850     1.8590 c6         1 1G4       0.147800
     14 CAA          1.3420     0.6050     1.4590 c6         1 1G4       0.083700
     15 NA           1.2630    -0.8080     1.1300 ns         1 1G4      -0.504900
     16 CBA          1.9310     1.4190     0.2990 c3         1 1G4      -0.044100
     17 CGA          3.2680     0.9020    -0.1510 ca         1 1G4      -0.127300
     18 CD2          3.3830     0.0420    -1.2400 ca         1 1G4      -0.066500
     19 CE2          4.6080    -0.4770    -1.6310 ca         1 1G4      -0.173000
     20 CZA          5.7600    -0.1410    -0.9260 ca         1 1G4       0.142100
     21 OHA          6.9330    -0.6650    -1.3420 oh         1 1G4      -0.531100
     22 CE1          5.6650     0.7170     0.1660 ca         1 1G4      -0.173000
     23 CD1          4.4310     1.2270     0.5410 ca         1 1G4      -0.066500
     24 H1          -1.7140    -1.1390     1.6020 h1         1 1G4       0.089700
     25 H2          -1.4080    -0.6880    -1.3940 hc         1 1G4       0.061200
     26 H3          -1.9730    -2.1630    -0.6350 hc         1 1G4       0.061200
     27 H4          -2.9320     1.1340    -1.7930 ha         1 1G4       0.110000
     28 H5          -5.2000     2.0460    -1.7210 ha         1 1G4       0.119500
     29 H6          -7.3230     1.7570    -0.8840 ho         1 1G4       0.463000
     30 H7          -6.3960    -1.1520     0.8720 ha         1 1G4       0.119500
     31 H8          -4.1180    -2.0580     0.7900 ha         1 1G4       0.110000
     32 H9          -0.8940     1.1460     0.0110 hn         1 1G4       0.417000
     33 H11         -0.0440     2.1710     1.9680 h1         1 1G4       0.065700
     34 H12         -0.3100     0.6670     2.8350 h1         1 1G4       0.065700
     35 H13          2.0100     0.7020     2.3190 h1         1 1G4       0.059700
     36 H14          2.1290    -1.3300     1.1250 hn         1 1G4       0.320500
     37 H15          1.2310     1.4120    -0.5420 hc         1 1G4       0.051700
     38 H16          2.0190     2.4580     0.6300 hc         1 1G4       0.051700
     39 H17          2.4980    -0.2280    -1.8050 ha         1 1G4       0.113500
     40 H18          4.6730    -1.1420    -2.4840 ha         1 1G4       0.123500
     41 H19          7.6520    -0.3640    -0.7770 ho         1 1G4       0.465000
     42 H20          6.5530     0.9920     0.7250 ha         1 1G4       0.123500
     43 H21          4.3810     1.8980     1.3910 ha         1 1G4       0.113500
@<TRIPOS>BOND
     1     1     2 2   
     2     2     3 1   
     3     2    15 1   
     4     3     4 1   
     5     3    12 1   
     6     3    24 1   
     7     4     5 1   
     8     4    25 1   
     9     4    26 1   
    10     5     6 ar  
    11     5    11 ar  
    12     6     7 ar  
    13     6    27 1   
    14     7     8 ar  
    15     7    28 1   
    16     8     9 1   
    17     8    10 ar  
    18     9    29 1   
    19    10    11 ar  
    20    10    30 1   
    21    11    31 1   
    22    12    13 1   
    23    12    32 1   
    24    13    14 1   
    25    13    33 1   
    26    13    34 1   
    27    14    15 1   
    28    14    16 1   
    29    14    35 1   
    30    15    36 1   
    31    16    17 1   
    32    16    37 1   
    33    16    38 1   
    34    17    18 ar  
    35    17    23 ar  
    36    18    19 ar  
    37    18    39 1   
    38    19    20 ar  
    39    19    40 1   
    40    20    21 1   
    41    20    22 ar  
    42    21    41 1   
    43    22    23 ar  
    44    22    42 1   
    45    23    43 1   
@<TRIPOS>SUBSTRUCTURE
     1 1G4         1 TEMP              0 ****  ****    0 ROOT
