@<TRIPOS>MOLECULE
1G4
   43    45     1     0     0
SMALL
No Charge or Current Charge


@<TRIPOS>ATOM
      1 OB           0.2100    -2.7580     0.3100 o          1 1G4      -0.569000
      2 CB           0.1390    -1.5870     0.6570 c          1 1G4       0.530000
      3 CAB         -1.2280    -0.8000     0.7350 c6         1 1G4       0.094500
      4 CBB         -2.1170    -1.1350    -0.5040 c3         1 1G4      -0.019100
      5 CGB         -3.5200    -0.5310    -0.4520 ca         1 1G4      -0.107300
      6 CD4         -3.9020     0.4700    -1.3690 ca         1 1G4      -0.063000
      7 CE4         -5.1980     1.0160    -1.3220 ca         1 1G4      -0.173500
      8 CZB         -6.1160     0.5640    -0.3610 ca         1 1G4       0.137100
      9 OHB         -7.3730     1.0880    -0.3110 oh         1 1G4      -0.534100
     10 CE3         -5.7430    -0.4340     0.5510 ca         1 1G4      -0.173500
     11 CD3         -4.4490    -0.9810     0.5070 ca         1 1G4      -0.063000
     12 NB          -1.0760     0.6940     0.8530 n7         1 1G4      -0.850400
     13 CA          -0.0240     1.0610     1.8320 c6         1 1G4       0.147800
     14 CAA          1.3700     0.5080     1.4060 c6         1 1G4       0.083700
     15 NA           1.2950    -0.9010     0.9710 ns         1 1G4      -0.504900
     16 CBA          2.0180     1.3720     0.2850 c3         1 1G4      -0.044100
     17 CGA          3.4010     0.8830    -0.1340 ca         1 1G4      -0.127300
     18 CD2          3.5740     0.1770    -1.3410 ca         1 1G4      -0.066500
     19 CE2          4.8500    -0.2760    -1.7180 ca         1 1G4      -0.173000
     20 CZA          5.9570    -0.0280    -0.8930 ca         1 1G4       0.142100
     21 OHA          7.1900    -0.4720    -1.2680 oh         1 1G4      -0.531100
     22 CE1          5.7920     0.6740     0.3120 ca         1 1G4      -0.173000
     23 CD1          4.5160     1.1280     0.6910 ca         1 1G4      -0.066500
     24 H1          -1.7240    -1.1810     1.6410 h1         1 1G4       0.089700
     25 H2          -1.6000    -0.8170    -1.4180 hc         1 1G4       0.061200
     26 H3          -2.2180    -2.2230    -0.5940 hc         1 1G4       0.061200
     27 H4          -3.1970     0.8260    -2.1160 ha         1 1G4       0.110000
     28 H5          -5.4790     1.7880    -2.0340 ha         1 1G4       0.119500
     29 H6          -7.4550     1.7650    -1.0160 ho         1 1G4       0.463000
     30 H7          -6.4550    -0.7840     1.2940 ha         1 1G4       0.119500
     31 H8          -4.1690    -1.7570     1.2170 ha         1 1G4       0.110000
     32 H9          -0.7960     1.0660    -0.0630 hn         1 1G4       0.417000
     33 H11          0.0270     2.1550     1.9440 h1         1 1G4       0.065700
     34 H12         -0.2870     0.6480     2.8180 h1         1 1G4       0.065700
     35 H13          2.0350     0.5530     2.2810 h1         1 1G4       0.059700
     36 H14          2.1590    -1.4210     0.8760 hn         1 1G4       0.320500
     37 H15          1.3560     1.4010    -0.5900 hc         1 1G4       0.051700
     38 H16          2.0940     2.4120     0.6270 hc         1 1G4       0.051700
     39 H17          2.7210    -0.0230    -1.9860 ha         1 1G4       0.113500
     40 H18          4.9790    -0.8200    -2.6500 ha         1 1G4       0.123500
     41 H19          7.8370    -0.2110    -0.5780 ho         1 1G4       0.465000
     42 H20          6.6440     0.8700     0.9580 ha         1 1G4       0.123500
     43 H21          4.3950     1.6710     1.6260 ha         1 1G4       0.113500
@<TRIPOS>BOND
     1     1     2 2   
     2     2     3 1   
     3     2    15 1   
     4     3     4 1   
     5     3    12 1   
     6     3    24 1   
     7     4     5 1   
     8     4    25 1   
     9     4    26 1   
    10     5     6 ar  
    11     5    11 ar  
    12     6     7 ar  
    13     6    27 1   
    14     7     8 ar  
    15     7    28 1   
    16     8     9 1   
    17     8    10 ar  
    18     9    29 1   
    19    10    11 ar  
    20    10    30 1   
    21    11    31 1   
    22    12    13 1   
    23    12    32 1   
    24    13    14 1   
    25    13    33 1   
    26    13    34 1   
    27    14    15 1   
    28    14    16 1   
    29    14    35 1   
    30    15    36 1   
    31    16    17 1   
    32    16    37 1   
    33    16    38 1   
    34    17    18 ar  
    35    17    23 ar  
    36    18    19 ar  
    37    18    39 1   
    38    19    20 ar  
    39    19    40 1   
    40    20    21 1   
    41    20    22 ar  
    42    21    41 1   
    43    22    23 ar  
    44    22    42 1   
    45    23    43 1   
@<TRIPOS>SUBSTRUCTURE
     1 1G4         1 TEMP              0 ****  ****    0 ROOT
