@<TRIPOS>MOLECULE
1G5
   80    81     1     0     0
SMALL
bcc


@<TRIPOS>ATOM
      1 C1           6.7800     3.5270    -1.2620 ca         1 1G5      -0.150000
      2 C6           5.4170     3.5700    -1.4970 ca         1 1G5      -0.099000
      3 C5           4.6120     2.5130    -1.1020 ca         1 1G5      -0.146000
      4 C4           5.1830     1.4110    -0.4730 ca         1 1G5      -0.108600
      5 C3           6.5540     1.3410    -0.2220 ca         1 1G5      -0.126300
      6 C2           7.3450     2.4230    -0.6310 ca         1 1G5       0.135100
      7 C7           7.1990     0.1760     0.4770 c3         1 1G5      -0.054800
      8 C9           4.2760     0.2660    -0.1420 c          1 1G5       0.682700
      9 O8           8.6780     2.4560    -0.4320 oh         1 1G5      -0.501100
     10 O32          4.3470    -0.8090    -0.7190 o          1 1G5      -0.591100
     11 N10          3.3730     0.5270     0.8170 ns         1 1G5      -0.551900
     12 C11          2.2880    -0.3730     1.0980 c3         1 1G5       0.033700
     13 C15          1.2820    -0.3520    -0.0540 c          1 1G5       0.659100
     14 O16          1.2440     0.5560    -0.8660 o          1 1G5      -0.600100
     15 C12          1.5960    -0.0340     2.4320 c3         1 1G5      -0.067700
     16 C13          2.5760    -0.1540     3.5950 c3         1 1G5      -0.090600
     17 C14          0.9030     1.3250     2.4250 c3         1 1G5      -0.090600
     18 N17          0.4520    -1.4110    -0.0800 ns         1 1G5      -0.541900
     19 C18         -0.7470    -1.4340    -0.8710 c3         1 1G5       0.024700
     20 C19         -1.9280    -0.8860    -0.0570 c          1 1G5       0.664100
     21 O33         -1.8430    -0.6790     1.1380 o          1 1G5      -0.596100
     22 C40         -1.0530    -2.8400    -1.3660 c3         1 1G5       0.129400
     23 O41         -1.4200    -3.6220    -0.2550 oh         1 1G5      -0.603800
     24 O38         -6.2470    -3.9310    -1.7700 o          1 1G5      -0.591800
     25 S36         -6.4450    -3.6470    -0.3470 s6         1 1G5       0.998000
     26 O37         -7.7650    -3.1730     0.0730 o          1 1G5      -0.591800
     27 C39         -6.0460    -5.1090     0.5840 c3         1 1G5      -0.223300
     28 C23         -5.4370    -1.1210    -0.5370 c3         1 1G5      -0.062400
     29 C21         -4.2810    -0.1640    -0.2510 c3         1 1G5       0.112700
     30 C22         -4.5470     1.2410    -0.8140 c3         1 1G5      -0.046100
     31 C24         -3.3800     2.1450    -0.5420 ca         1 1G5      -0.085300
     32 C25         -3.2280     2.7500     0.7020 ca         1 1G5      -0.125000
     33 C26         -2.0830     3.4670     1.0100 ca         1 1G5      -0.110000
     34 C27         -1.0520     3.6070     0.0840 ca         1 1G5      -0.087300
     35 C30          0.2010     4.3550     0.4610 c3         1 1G5       0.201100
     36 N31          1.3540     3.9020    -0.2980 n8         1 1G5      -0.900800
     37 C28         -1.2140     3.0250    -1.1690 ca         1 1G5      -0.110000
     38 C29         -2.3630     2.3090    -1.4760 ca         1 1G5      -0.125000
     39 N20         -3.0470    -0.7000    -0.7790 ns         1 1G5      -0.569900
     40 H5           7.4180     4.3470    -1.5690 ha         1 1G5       0.148000
     41 H6           4.9840     4.4280    -1.9940 ha         1 1G5       0.141000
     42 H7           3.5500     2.5300    -1.3110 ha         1 1G5       0.156000
     43 H1           7.8530    -0.3860    -0.1940 hc         1 1G5       0.047700
     44 H2           7.8020     0.5030     1.3280 hc         1 1G5       0.047700
     45 H3           6.4710    -0.5280     0.8710 hc         1 1G5       0.047700
     46 H4           9.0020     1.6280    -0.0620 ho         1 1G5       0.430000
     47 H8           3.3600     1.4490     1.2210 hn         1 1G5       0.322500
     48 H9           2.6920    -1.3870     1.1840 h1         1 1G5       0.082700
     49 H10          0.8240    -0.7970     2.5660 hc         1 1G5       0.067700
     50 H11          2.0490    -0.0510     4.5430 hc         1 1G5       0.039700
     51 H12          3.0790    -1.1220     3.5960 hc         1 1G5       0.039700
     52 H13          3.3440     0.6210     3.5620 hc         1 1G5       0.039700
     53 H14          0.1490     1.4080     1.6430 hc         1 1G5       0.039700
     54 H15          0.3980     1.4830     3.3790 hc         1 1G5       0.039700
     55 H16          1.6090     2.1510     2.3070 hc         1 1G5       0.039700
     56 H17          0.5060    -2.0710     0.6820 hn         1 1G5       0.328500
     57 H18         -0.5890    -0.7990    -1.7460 h1         1 1G5       0.101700
     58 H19         -1.8510    -2.7940    -2.1150 h1         1 1G5       0.038200
     59 H20         -0.1630    -3.2320    -1.8710 h1         1 1G5       0.038200
     60 H21         -1.5570    -4.5270    -0.5490 ho         1 1G5       0.410000
     61 H28         -5.0390    -5.4380     0.3380 h1         1 1G5       0.103700
     62 H29         -6.1280    -4.8960     1.6470 h1         1 1G5       0.103700
     63 H30         -6.7660    -5.8760     0.3010 h1         1 1G5       0.103700
     64 H26         -5.2940    -2.3520     1.2490 h1         1 1G5       0.103700
     65 H27         -4.2390    -2.8830    -0.0730 h1         1 1G5       0.103700
     66 H24         -5.5290    -1.2660    -1.6170 hc         1 1G5       0.064700
     67 H25         -6.3680    -0.6700    -0.1910 hc         1 1G5       0.064700
     68 H23         -4.1530    -0.0780     0.8290 h1         1 1G5       0.087700
     69 H31         -4.7430     1.1710    -1.8890 hc         1 1G5       0.053700
     70 H32         -5.4570     1.6300    -0.3510 hc         1 1G5       0.053700
     71 H33         -4.0040     2.6370     1.4510 ha         1 1G5       0.124500
     72 H34         -1.9820     3.9090     1.9950 ha         1 1G5       0.141000
     73 H35          0.0610     5.4230     0.2610 h1         1 1G5       0.032200
     74 H36          0.3290     4.2720     1.5490 h1         1 1G5       0.032200
     75 H37          2.1900     4.3410     0.0640 hn         1 1G5       0.348800
     76 H38          1.4660     2.9020    -0.1810 hn         1 1G5       0.348800
     77 H40         -0.4260     3.1100    -1.9050 ha         1 1G5       0.141000
     78 H41         -2.4560     1.8540    -2.4550 ha         1 1G5       0.124500
     79 H22         -2.9960    -0.8220    -1.7800 hn         1 1G5       0.309500
     80 C35         -5.2150    -2.4540     0.1650 c3         1 1G5      -0.186600
@<TRIPOS>BOND
     1     1     2 ar  
     2     1     6 ar  
     3     1    40 1   
     4     2     3 ar  
     5     2    41 1   
     6     3     4 ar  
     7     3    42 1   
     8     4     5 ar  
     9     4     8 1   
    10     5     6 ar  
    11     5     7 1   
    12     6     9 1   
    13     7    43 1   
    14     7    44 1   
    15     7    45 1   
    16     8    10 2   
    17     8    11 1   
    18     9    46 1   
    19    11    12 1   
    20    11    47 1   
    21    12    13 1   
    22    12    15 1   
    23    12    48 1   
    24    13    14 2   
    25    13    18 1   
    26    15    16 1   
    27    15    17 1   
    28    15    49 1   
    29    16    50 1   
    30    16    51 1   
    31    16    52 1   
    32    17    53 1   
    33    17    54 1   
    34    17    55 1   
    35    18    19 1   
    36    18    56 1   
    37    19    20 1   
    38    19    22 1   
    39    19    57 1   
    40    20    21 2   
    41    20    39 1   
    42    22    23 1   
    43    22    58 1   
    44    22    59 1   
    45    23    60 1   
    46    24    25 2   
    47    25    26 2   
    48    25    27 1   
    49    25    80 1   
    50    27    61 1   
    51    27    62 1   
    52    27    63 1   
    53    28    29 1   
    54    28    66 1   
    55    28    67 1   
    56    28    80 1   
    57    29    30 1   
    58    29    39 1   
    59    29    68 1   
    60    30    31 1   
    61    30    69 1   
    62    30    70 1   
    63    31    32 ar  
    64    31    38 ar  
    65    32    33 ar  
    66    32    71 1   
    67    33    34 ar  
    68    33    72 1   
    69    34    35 1   
    70    34    37 ar  
    71    35    36 1   
    72    35    73 1   
    73    35    74 1   
    74    36    75 1   
    75    36    76 1   
    76    37    38 ar  
    77    37    77 1   
    78    38    78 1   
    79    39    79 1   
    80    64    80 1   
    81    65    80 1   
@<TRIPOS>SUBSTRUCTURE
     1 1G5         1 TEMP              0 ****  ****    0 ROOT
