@<TRIPOS>MOLECULE
1G5
   80    81     1     0     0
SMALL
No Charge or Current Charge


@<TRIPOS>ATOM
      1 C1           7.8700     2.7820    -1.2990 ca         1 1G5      -0.132000
      2 C6           6.5540     2.7700    -1.7730 ca         1 1G5      -0.081000
      3 C5           5.6050     1.9270    -1.1790 ca         1 1G5      -0.128000
      4 C4           5.9510     1.0830    -0.0930 ca         1 1G5      -0.108600
      5 C3           7.2920     1.1140     0.4030 ca         1 1G5      -0.126300
      6 C2           8.2410     1.9630    -0.2250 ca         1 1G5       0.135100
      7 C7           7.7000     0.2740     1.6230 c3         1 1G5      -0.054800
      8 C9           4.8840     0.1630     0.4890 c          1 1G5       0.615700
      9 O8           9.5420     2.0070     0.1890 oh         1 1G5      -0.540100
     10 O32          5.1250    -0.9490     0.9410 o          1 1G5      -0.591100
     11 N10          3.5910     0.6340     0.4040 ns         1 1G5      -0.484900
     12 C11          2.3800    -0.0770     0.8780 c3         1 1G5       0.033700
     13 C15          1.2080     0.1390    -0.1250 c          1 1G5       0.592100
     14 O16          1.2360     0.9780    -1.0180 o          1 1G5      -0.600100
     15 C12          1.9920     0.3380     2.3350 c3         1 1G5      -0.067700
     16 C13          3.0500    -0.0910     3.3790 c3         1 1G5      -0.090600
     17 C14          1.6650     1.8460     2.4640 c3         1 1G5      -0.090600
     18 N17          0.1170    -0.6800     0.0650 ns         1 1G5      -0.474900
     19 C18         -1.1110    -0.6760    -0.7680 c3         1 1G5       0.024700
     20 C19         -2.3670    -0.8950     0.1150 c          1 1G5       0.597100
     21 O33         -2.3050    -1.1710     1.3080 o          1 1G5      -0.596100
     22 C40         -1.0200    -1.6950    -1.9290 c3         1 1G5       0.152600
     23 O41         -0.8720    -3.0320    -1.4250 oh         1 1G5      -0.666000
     24 O38         -7.0540    -4.0280    -1.8050 o          1 1G5      -0.521000
     25 S36         -6.8720    -4.0570    -0.3480 s6         1 1G5       1.078000
     26 O37         -8.0220    -3.8030     0.5290 o          1 1G5      -0.521000
     27 C39         -6.1930    -5.6550     0.0870 c3         1 1G5      -0.334100
     28 C23         -5.9430    -1.4050    -0.2220 c3         1 1G5      -0.062400
     29 C21         -4.8340    -0.4020     0.1720 c3         1 1G5       0.112700
     30 C22         -5.2390     1.0790    -0.0630 c3         1 1G5      -0.046100
     31 C24         -4.0320     2.0170    -0.0920 ca         1 1G5      -0.085300
     32 C25         -3.2450     2.2050     1.0600 ca         1 1G5      -0.107000
     33 C26         -2.0640     2.9650     0.9990 ca         1 1G5      -0.092000
     34 C27         -1.6560     3.5520    -0.2150 ca         1 1G5      -0.087300
     35 C30         -0.3570     4.3490    -0.2870 c3         1 1G5       0.201100
     36 N31          0.5160     3.8870    -1.3820 n8         1 1G5      -1.011200
     37 C28         -2.4630     3.3930    -1.3580 ca         1 1G5      -0.092000
     38 C29         -3.6400     2.6280    -1.2990 ca         1 1G5      -0.107000
     39 N20         -3.5740    -0.6910    -0.5250 ns         1 1G5      -0.502900
     40 H5           8.6080     3.4280    -1.7680 ha         1 1G5       0.130000
     41 H6           6.2710     3.4040    -2.6110 ha         1 1G5       0.123000
     42 H7           4.6010     1.9150    -1.5970 ha         1 1G5       0.138000
     43 H1           7.8950    -0.7660     1.3370 hc         1 1G5       0.047700
     44 H2           8.5940     0.6530     2.1290 hc         1 1G5       0.047700
     45 H3           6.9130     0.2720     2.3870 hc         1 1G5       0.047700
     46 H4           9.6640     1.3340     0.8900 ho         1 1G5       0.469000
     47 H8           3.4700     1.5490    -0.0110 hn         1 1G5       0.322500
     48 H9           2.5820    -1.1560     0.8700 h1         1 1G5       0.082700
     49 H10          1.0750    -0.2070     2.5940 hc         1 1G5       0.067700
     50 H11          2.6870     0.0980     4.3960 hc         1 1G5       0.039700
     51 H12          3.2690    -1.1620     3.2930 hc         1 1G5       0.039700
     52 H13          3.9860     0.4650     3.2460 hc         1 1G5       0.039700
     53 H14          0.8660     2.1360     1.7730 hc         1 1G5       0.039700
     54 H15          1.3260     2.0810     3.4810 hc         1 1G5       0.039700
     55 H16          2.5460     2.4630     2.2500 hc         1 1G5       0.039700
     56 H17          0.1640    -1.3450     0.8300 hn         1 1G5       0.328500
     57 H18         -1.2310     0.3240    -1.2060 h1         1 1G5       0.101700
     58 H19         -1.9200    -1.6200    -2.5540 h1         1 1G5       0.038200
     59 H20         -0.1610    -1.4310    -2.5610 h1         1 1G5       0.038200
     60 H21         -0.7470    -3.6230    -2.2010 ho         1 1G5       0.449000
     61 H28         -5.2830    -5.8040    -0.5030 h1         1 1G5       0.103700
     62 H29         -5.9730    -5.6440     1.1600 h1         1 1G5       0.103700
     63 H30         -6.9480    -6.4110    -0.1540 h1         1 1G5       0.103700
     64 H26         -5.3690    -3.0200     1.1480 h1         1 1G5       0.103700
     65 H27         -4.6850    -3.1850    -0.4940 h1         1 1G5       0.103700
     66 H24         -6.1630    -1.2950    -1.2920 hc         1 1G5       0.064700
     67 H25         -6.8610    -1.1440     0.3200 hc         1 1G5       0.064700
     68 H23         -4.6640    -0.5150     1.2520 h1         1 1G5       0.087700
     69 H31         -5.7860     1.1520    -1.0110 hc         1 1G5       0.053700
     70 H32         -5.9450     1.3880     0.7190 hc         1 1G5       0.053700
     71 H33         -3.5310     1.7330     1.9980 ha         1 1G5       0.106500
     72 H34         -1.4600     3.0850     1.8960 ha         1 1G5       0.123000
     73 H35         -0.5850     5.4130    -0.4400 h1         1 1G5       0.032200
     74 H36          0.1930     4.2510     0.6590 h1         1 1G5       0.032200
     75 H37          1.4270     4.3500    -1.3000 hn         1 1G5       0.404000
     76 H38          0.7310     2.8880    -1.2320 hn         1 1G5       0.404000
     77 H40         -2.1660     3.8470    -2.3010 ha         1 1G5       0.123000
     78 H41         -4.2310     2.4890    -2.2010 ha         1 1G5       0.106500
     79 H22         -3.5310    -0.4730    -1.5130 hn         1 1G5       0.309500
     80 C35         -5.5680    -2.8820     0.0800 c3         1 1G5      -0.297400
@<TRIPOS>BOND
     1     1     2 ar  
     2     1     6 ar  
     3     1    40 1   
     4     2     3 ar  
     5     2    41 1   
     6     3     4 ar  
     7     3    42 1   
     8     4     5 ar  
     9     4     8 1   
    10     5     6 ar  
    11     5     7 1   
    12     6     9 1   
    13     7    43 1   
    14     7    44 1   
    15     7    45 1   
    16     8    10 2   
    17     8    11 1   
    18     9    46 1   
    19    11    12 1   
    20    11    47 1   
    21    12    13 1   
    22    12    15 1   
    23    12    48 1   
    24    13    14 2   
    25    13    18 1   
    26    15    16 1   
    27    15    17 1   
    28    15    49 1   
    29    16    50 1   
    30    16    51 1   
    31    16    52 1   
    32    17    53 1   
    33    17    54 1   
    34    17    55 1   
    35    18    19 1   
    36    18    56 1   
    37    19    20 1   
    38    19    22 1   
    39    19    57 1   
    40    20    21 2   
    41    20    39 1   
    42    22    23 1   
    43    22    58 1   
    44    22    59 1   
    45    23    60 1   
    46    24    25 2   
    47    25    26 2   
    48    25    27 1   
    49    25    80 1   
    50    27    61 1   
    51    27    62 1   
    52    27    63 1   
    53    28    29 1   
    54    28    66 1   
    55    28    67 1   
    56    28    80 1   
    57    29    30 1   
    58    29    39 1   
    59    29    68 1   
    60    30    31 1   
    61    30    69 1   
    62    30    70 1   
    63    31    32 ar  
    64    31    38 ar  
    65    32    33 ar  
    66    32    71 1   
    67    33    34 ar  
    68    33    72 1   
    69    34    35 1   
    70    34    37 ar  
    71    35    36 1   
    72    35    73 1   
    73    35    74 1   
    74    36    75 1   
    75    36    76 1   
    76    37    38 ar  
    77    37    77 1   
    78    38    78 1   
    79    39    79 1   
    80    64    80 1   
    81    65    80 1   
@<TRIPOS>SUBSTRUCTURE
     1 1G5         1 TEMP              0 ****  ****    0 ROOT
