@<TRIPOS>MOLECULE
1G6
  101   103     1     0     0
SMALL
bcc


@<TRIPOS>ATOM
      1 C12         10.0980  -137.4290    20.5420 c          1 1G6       0.694100
      2 O13         11.0490  -138.1530    20.7760 o          1 1G6      -0.562100
      3 C8           9.9690  -136.0570    21.1900 c3         1 1G6       0.091500
      4 N9          10.4610  -136.1740    22.5610 n2         1 1G6      -0.406200
      5 N10         10.0230  -135.3640    23.3580 n1         1 1G6       0.232000
      6 N11          9.6760  -134.6800    24.1790 n1         1 1G6      -0.073000
      7 C7          10.8210  -135.0720    20.3730 c3         1 1G6      -0.048100
      8 C3          10.7880  -133.6860    20.9490 ca         1 1G6      -0.096300
      9 C2          11.8590  -133.2060    21.6970 ca         1 1G6      -0.126500
     10 C1          11.8200  -131.9350    22.2580 ca         1 1G6      -0.127500
     11 C4           9.6740  -132.8690    20.7700 ca         1 1G6      -0.126500
     12 C5           9.6300  -131.6010    21.3300 ca         1 1G6      -0.127500
     13 C6          10.7040  -131.1310    22.0760 ca         1 1G6      -0.126000
     14 C25         10.3310  -138.4790    17.7040 c          1 1G6       0.655100
     15 O26         11.0050  -137.4690    17.7640 o          1 1G6      -0.579100
     16 C15          9.1950  -138.7700    18.6980 c3         1 1G6       0.046700
     17 C16          9.2640  -140.1810    19.3160 c3         1 1G6      -0.032100
     18 C17          8.1560  -140.4070    20.3050 ca         1 1G6      -0.082300
     19 C22          8.3640  -140.2680    21.6740 ca         1 1G6      -0.125000
     20 C21          7.3280  -140.4550    22.5780 ca         1 1G6      -0.118500
     21 C20          6.0480  -140.7840    22.1400 ca         1 1G6      -0.088300
     22 C23          4.9010  -140.9480    23.1060 c3         1 1G6       0.198100
     23 N24          5.3290  -141.5090    24.3750 n8         1 1G6      -0.888800
     24 C19          5.8420  -140.9330    20.7710 ca         1 1G6      -0.118500
     25 C18          6.8780  -140.7440    19.8680 ca         1 1G6      -0.125000
     26 N14          9.1160  -137.7160    19.6730 ns         1 1G6      -0.554900
     27 N27         10.5110  -139.4180    16.7560 ns         1 1G6      -0.547900
     28 C28         11.3970  -139.2000    15.6450 c3         1 1G6       0.031700
     29 C33         10.8260  -138.1260    14.7090 c          1 1G6       0.652100
     30 O34          9.6560  -137.7850    14.7580 o          1 1G6      -0.613100
     31 C29         11.6170  -140.5100    14.8830 c3         1 1G6      -0.086400
     32 C30         12.0960  -141.6850    15.7400 c3         1 1G6      -0.055700
     33 C31         12.2390  -142.9200    14.8560 c3         1 1G6      -0.091600
     34 C32         13.4060  -141.3740    16.4550 c3         1 1G6      -0.091600
     35 O50         13.9500  -139.2240     9.7110 o          1 1G6      -0.594800
     36 S48         13.1360  -138.9380    10.8930 s6         1 1G6       0.995000
     37 O49         13.8490  -138.7860    12.1680 o          1 1G6      -0.594800
     38 C51         11.9230  -140.2270    11.0590 c3         1 1G6      -0.224300
     39 C46         11.0660  -137.0670    11.4850 c3         1 1G6      -0.063400
     40 C36         11.4210  -136.5730    12.8920 c3         1 1G6       0.110700
     41 C37         12.5530  -135.5420    12.8940 c3         1 1G6      -0.040100
     42 C38         12.7320  -134.8940    14.2370 ca         1 1G6      -0.088300
     43 C43         11.8230  -133.9460    14.6990 ca         1 1G6      -0.122000
     44 C42         11.9640  -133.3660    15.9520 ca         1 1G6      -0.113500
     45 C41         13.0250  -133.7120    16.7820 ca         1 1G6      -0.073300
     46 C44         13.1730  -133.1390    18.1700 c3         1 1G6       0.197100
     47 N45         12.4750  -131.8810    18.3460 n8         1 1G6      -0.896800
     48 C40         13.9420  -134.6490    16.3160 ca         1 1G6      -0.113500
     49 C39         13.7950  -135.2350    15.0670 ca         1 1G6      -0.122000
     50 N35         11.7140  -137.6360    13.8300 ns         1 1G6      -0.575900
     51 H45          8.9240  -135.7280    21.1820 h1         1 1G6       0.046700
     52 H47         11.8460  -135.4460    20.3490 hc         1 1G6       0.080200
     53 H48         10.4550  -135.0750    19.3440 hc         1 1G6       0.080200
     54 H49         12.7330  -133.8310    21.8370 ha         1 1G6       0.134000
     55 H53         12.6620  -131.5750    22.8340 ha         1 1G6       0.132500
     56 H50          8.8340  -133.2250    20.1850 ha         1 1G6       0.134000
     57 H51          8.7600  -130.9750    21.1800 ha         1 1G6       0.132500
     58 H52         10.6700  -130.1400    22.5120 ha         1 1G6       0.132000
     59 H32          8.2650  -138.7130    18.1250 h1         1 1G6       0.067700
     60 H33          9.1770  -140.9180    18.5160 hc         1 1G6       0.064200
     61 H34         10.2350  -140.3390    19.7830 hc         1 1G6       0.064200
     62 H35          9.3500  -140.0090    22.0410 ha         1 1G6       0.135000
     63 H36          7.5160  -140.3510    23.6390 ha         1 1G6       0.137500
     64 H37          4.4730  -139.9610    23.3080 h1         1 1G6       0.033200
     65 H38          4.1060  -141.5210    22.6100 h1         1 1G6       0.033200
     66 H39          4.5550  -141.4950    25.0260 hn         1 1G6       0.341800
     67 H40          5.5750  -142.4830    24.2510 hn         1 1G6       0.341800
     68 H42          4.8600  -141.2090    20.4050 ha         1 1G6       0.137500
     69 H43          6.6890  -140.8740    18.8080 ha         1 1G6       0.135000
     70 H44          8.3800  -137.0410    19.5490 hn         1 1G6       0.317500
     71 H31          9.8210  -140.1450    16.6550 hn         1 1G6       0.314500
     72 H21         12.3570  -138.8430    16.0270 h1         1 1G6       0.097700
     73 H22         10.6860  -140.7910    14.3790 hc         1 1G6       0.048200
     74 H23         12.3590  -140.3350    14.1000 hc         1 1G6       0.048200
     75 H24         11.3350  -141.8990    16.4970 hc         1 1G6       0.046700
     76 H28         12.5480  -143.7890    15.4390 hc         1 1G6       0.037200
     77 H29         11.2990  -143.1690    14.3620 hc         1 1G6       0.037200
     78 H30         12.9910  -142.7580    14.0800 hc         1 1G6       0.037200
     79 H25         13.7480  -142.2360    17.0290 hc         1 1G6       0.037200
     80 H26         14.1910  -141.1240    15.7370 hc         1 1G6       0.037200
     81 H27         13.3080  -140.5410    17.1520 hc         1 1G6       0.037200
     82 H1          11.2740  -140.0360    11.9100 h1         1 1G6       0.105367
     83 H2          11.3380  -140.2860    10.1440 h1         1 1G6       0.105367
     84 H3          12.4680  -141.1580    11.2110 h1         1 1G6       0.105367
     85 H4          11.7700  -137.6380     9.5390 h1         1 1G6       0.103200
     86 H5          12.9410  -136.6760    10.4250 h1         1 1G6       0.103200
     87 H6          10.5490  -136.2470    10.9810 hc         1 1G6       0.057700
     88 H7          10.3270  -137.8670    11.5620 hc         1 1G6       0.057700
     89 H8          10.5210  -136.0810    13.2630 h1         1 1G6       0.087700
     90 H9          13.4900  -136.0130    12.5850 hc         1 1G6       0.052700
     91 H10         12.3230  -134.7880    12.1360 hc         1 1G6       0.052700
     92 H11         10.9900  -133.6500    14.0710 ha         1 1G6       0.126000
     93 H12         11.2470  -132.6300    16.2920 ha         1 1G6       0.138000
     94 H13         12.7430  -133.8560    18.8720 h1         1 1G6       0.036700
     95 H14         14.2420  -133.0920    18.4180 h1         1 1G6       0.036700
     96 H15         12.3620  -131.6930    19.3330 hn         1 1G6       0.344800
     97 H16         13.0270  -131.1220    17.9680 hn         1 1G6       0.344800
     98 H18         14.7850  -134.9290    16.9380 ha         1 1G6       0.138000
     99 H19         14.5300  -135.9570    14.7290 ha         1 1G6       0.126000
    100 H20         12.6610  -137.9840    13.8490 hn         1 1G6       0.341500
    101 C47         12.1870  -137.4600    10.5320 c3         1 1G6      -0.181600
@<TRIPOS>BOND
     1     1     2 2   
     2     1     3 1   
     3     1    26 1   
     4     3     4 1   
     5     3     7 1   
     6     3    51 1   
     7     4     5 1   
     8     5     6 3   
     9     7     8 1   
    10     7    52 1   
    11     7    53 1   
    12     8     9 ar  
    13     8    11 ar  
    14     9    10 ar  
    15     9    54 1   
    16    10    13 ar  
    17    10    55 1   
    18    11    12 ar  
    19    11    56 1   
    20    12    13 ar  
    21    12    57 1   
    22    13    58 1   
    23    14    15 2   
    24    14    16 1   
    25    14    27 1   
    26    16    17 1   
    27    16    26 1   
    28    16    59 1   
    29    17    18 1   
    30    17    60 1   
    31    17    61 1   
    32    18    19 ar  
    33    18    25 ar  
    34    19    20 ar  
    35    19    62 1   
    36    20    21 ar  
    37    20    63 1   
    38    21    22 1   
    39    21    24 ar  
    40    22    23 1   
    41    22    64 1   
    42    22    65 1   
    43    23    66 1   
    44    23    67 1   
    45    24    25 ar  
    46    24    68 1   
    47    25    69 1   
    48    26    70 1   
    49    27    28 1   
    50    27    71 1   
    51    28    29 1   
    52    28    31 1   
    53    28    72 1   
    54    29    30 2   
    55    29    50 1   
    56    31    32 1   
    57    31    73 1   
    58    31    74 1   
    59    32    33 1   
    60    32    34 1   
    61    32    75 1   
    62    33    76 1   
    63    33    77 1   
    64    33    78 1   
    65    34    79 1   
    66    34    80 1   
    67    34    81 1   
    68    35    36 2   
    69    36    37 2   
    70    36    38 1   
    71    36   101 1   
    72    38    82 1   
    73    38    83 1   
    74    38    84 1   
    75    39    40 1   
    76    39    87 1   
    77    39    88 1   
    78    39   101 1   
    79    40    41 1   
    80    40    50 1   
    81    40    89 1   
    82    41    42 1   
    83    41    90 1   
    84    41    91 1   
    85    42    43 ar  
    86    42    49 ar  
    87    43    44 ar  
    88    43    92 1   
    89    44    45 ar  
    90    44    93 1   
    91    45    46 1   
    92    45    48 ar  
    93    46    47 1   
    94    46    94 1   
    95    46    95 1   
    96    47    96 1   
    97    47    97 1   
    98    48    49 ar  
    99    48    98 1   
   100    49    99 1   
   101    50   100 1   
   102    85   101 1   
   103    86   101 1   
@<TRIPOS>SUBSTRUCTURE
     1 1G6         1 TEMP              0 ****  ****    0 ROOT
