@<TRIPOS>MOLECULE
1G6
  101   103     1     0     0
SMALL
No Charge or Current Charge


@<TRIPOS>ATOM
      1 C12         10.7440  -137.4570    20.6690 c          1 1G6       0.627100
      2 O13         11.3520  -138.5180    20.5790 o          1 1G6      -0.562100
      3 C8          10.8920  -136.5000    21.8860 c3         1 1G6       0.091500
      4 N9          10.2160  -137.0400    23.0860 n2         1 1G6      -0.406200
      5 N10          8.9940  -136.8350    23.1730 n1         1 1G6       0.232000
      6 N11          7.9080  -136.5080    23.2630 n1         1 1G6      -0.073000
      7 C7          12.3790  -136.2010    22.1990 c3         1 1G6      -0.048100
      8 C3          12.5590  -135.0930    23.2330 ca         1 1G6      -0.096300
      9 C2          12.8930  -135.4070    24.5650 ca         1 1G6      -0.108500
     10 C1          13.0550  -134.3840    25.5160 ca         1 1G6      -0.109500
     11 C4          12.3890  -133.7440    22.8630 ca         1 1G6      -0.108500
     12 C5          12.5510  -132.7220    23.8130 ca         1 1G6      -0.109500
     13 C6          12.8850  -133.0410    25.1400 ca         1 1G6      -0.108000
     14 C25         10.7110  -137.8160    17.4400 c          1 1G6       0.588100
     15 O26         11.7580  -137.2020    17.6040 o          1 1G6      -0.579100
     16 C15          9.5220  -137.7630    18.4520 c3         1 1G6       0.046700
     17 C16          8.8980  -139.1570    18.7550 c3         1 1G6      -0.032100
     18 C17          7.8720  -139.1210    19.8850 ca         1 1G6      -0.082300
     19 C22          8.1180  -139.8000    21.0940 ca         1 1G6      -0.107000
     20 C21          7.1790  -139.7550    22.1380 ca         1 1G6      -0.100500
     21 C20          5.9800  -139.0310    21.9880 ca         1 1G6      -0.088300
     22 C23          4.9720  -138.9690    23.1280 c3         1 1G6       0.198100
     23 N24          4.0530  -140.1210    23.1030 n8         1 1G6      -0.999200
     24 C19          5.7330  -138.3540    20.7780 ca         1 1G6      -0.100500
     25 C18          6.6720  -138.4000    19.7330 ca         1 1G6      -0.107000
     26 N14          9.8820  -137.0120    19.6810 ns         1 1G6      -0.487900
     27 N27         10.4990  -138.5990    16.3210 ns         1 1G6      -0.480900
     28 C28         11.4650  -138.7860    15.2160 c3         1 1G6       0.031700
     29 C33         10.7430  -138.5930    13.8560 c          1 1G6       0.585100
     30 O34          9.5320  -138.7200    13.7130 o          1 1G6      -0.613100
     31 C29         12.1440  -140.1800    15.2950 c3         1 1G6      -0.086400
     32 C30         13.0760  -140.4060    16.5180 c3         1 1G6      -0.055700
     33 C31         13.5080  -141.8860    16.6140 c3         1 1G6      -0.091600
     34 C32         14.3160  -139.4800    16.4970 c3         1 1G6      -0.091600
     35 O50         15.8040  -138.9250    10.5310 o          1 1G6      -0.524000
     36 S48         14.4910  -138.9290    11.1870 s6         1 1G6       1.075000
     37 O49         14.3560  -138.3340    12.5220 o          1 1G6      -0.524000
     38 C51         13.9440  -140.6310    11.2940 c3         1 1G6      -0.335100
     39 C46         11.7860  -138.3300    10.3240 c3         1 1G6      -0.063400
     40 C36         11.1310  -137.6450    11.5560 c3         1 1G6       0.110700
     41 C37         11.2840  -136.1000    11.5950 c3         1 1G6      -0.040100
     42 C38         10.7360  -135.5000    12.8890 ca         1 1G6      -0.088300
     43 C43          9.3500  -135.3290    13.0650 ca         1 1G6      -0.104000
     44 C42          8.8420  -134.8580    14.2880 ca         1 1G6      -0.095500
     45 C41          9.7140  -134.5520    15.3520 ca         1 1G6      -0.073300
     46 C44          9.1610  -134.0690    16.6870 c3         1 1G6       0.197100
     47 N45          8.8790  -132.6210    16.6680 n8         1 1G6      -1.007200
     48 C40         11.1010  -134.7130    15.1720 ca         1 1G6      -0.095500
     49 C39         11.6090  -135.1810    13.9480 ca         1 1G6      -0.104000
     50 N35         11.5760  -138.2300    12.8210 ns         1 1G6      -0.508900
     51 H45         10.4290  -135.5460    21.5970 h1         1 1G6       0.046700
     52 H47         12.8720  -137.1230    22.5300 hc         1 1G6       0.080200
     53 H48         12.8830  -135.9110    21.2680 hc         1 1G6       0.080200
     54 H49         13.0230  -136.4440    24.8670 ha         1 1G6       0.116000
     55 H53         13.3120  -134.6330    26.5440 ha         1 1G6       0.114500
     56 H50         12.1310  -133.4870    21.8370 ha         1 1G6       0.116000
     57 H51         12.4190  -131.6820    23.5210 ha         1 1G6       0.114500
     58 H52         13.0100  -132.2490    25.8760 ha         1 1G6       0.114000
     59 H32          8.7450  -137.1760    17.9470 h1         1 1G6       0.067700
     60 H33          8.4180  -139.5460    17.8490 hc         1 1G6       0.064200
     61 H34          9.7010  -139.8660    18.9930 hc         1 1G6       0.064200
     62 H35          9.0420  -140.3580    21.2300 ha         1 1G6       0.117000
     63 H36          7.3840  -140.2810    23.0680 ha         1 1G6       0.119500
     64 H37          5.5000  -138.9560    24.0920 h1         1 1G6       0.033200
     65 H38          4.3820  -138.0440    23.0510 h1         1 1G6       0.033200
     66 H39          3.3340  -139.9890    23.8240 hn         1 1G6       0.397000
     67 H40          3.5240  -140.0970    22.2230 hn         1 1G6       0.397000
     68 H42          4.8120  -137.7900    20.6470 ha         1 1G6       0.119500
     69 H43          6.4650  -137.8720    18.8040 ha         1 1G6       0.117000
     70 H44          9.4290  -136.1220    19.8470 hn         1 1G6       0.317500
     71 H31          9.5870  -139.0300    16.2270 hn         1 1G6       0.314500
     72 H21         12.2300  -138.0020    15.2650 h1         1 1G6       0.097700
     73 H22         11.3570  -140.9460    15.2950 hc         1 1G6       0.048200
     74 H23         12.7280  -140.3450    14.3810 hc         1 1G6       0.048200
     75 H24         12.5080  -140.1800    17.4290 hc         1 1G6       0.046700
     76 H28         14.1290  -142.0530    17.5030 hc         1 1G6       0.037200
     77 H29         12.6320  -142.5420    16.6900 hc         1 1G6       0.037200
     78 H30         14.0850  -142.1850    15.7310 hc         1 1G6       0.037200
     79 H25         14.9630  -139.6820    17.3590 hc         1 1G6       0.037200
     80 H26         14.9050  -139.6350    15.5850 hc         1 1G6       0.037200
     81 H27         14.0290  -138.4240    16.5430 hc         1 1G6       0.037200
     82 H1          12.9620  -140.6430    11.7780 h1         1 1G6       0.105367
     83 H2          13.8910  -141.0300    10.2750 h1         1 1G6       0.105367
     84 H3          14.6810  -141.1750    11.8930 h1         1 1G6       0.105367
     85 H4          13.5670  -138.5020     9.0800 h1         1 1G6       0.103200
     86 H5          13.5740  -137.0450    10.0820 h1         1 1G6       0.103200
     87 H6          11.2580  -137.9570     9.4370 hc         1 1G6       0.057700
     88 H7          11.5650  -139.4040    10.3550 hc         1 1G6       0.057700
     89 H8          10.0530  -137.8410    11.4680 h1         1 1G6       0.087700
     90 H9          12.3410  -135.8320    11.4930 hc         1 1G6       0.052700
     91 H10         10.7730  -135.6660    10.7270 hc         1 1G6       0.052700
     92 H11          8.6630  -135.5820    12.2600 ha         1 1G6       0.108000
     93 H12          7.7690  -134.7380    14.4150 ha         1 1G6       0.120000
     94 H13          8.2330  -134.6090    16.9200 h1         1 1G6       0.036700
     95 H14          9.8860  -134.2790    17.4860 h1         1 1G6       0.036700
     96 H15          8.6010  -132.3230    17.6100 hn         1 1G6       0.400000
     97 H16          9.7580  -132.1180    16.5020 hn         1 1G6       0.400000
     98 H18         11.7870  -134.4870    15.9850 ha         1 1G6       0.120000
     99 H19         12.6810  -135.3190    13.8330 ha         1 1G6       0.108000
    100 H20         12.5630  -138.1500    13.0490 hn         1 1G6       0.341500
    101 C47         13.3160  -138.1090    10.0710 c3         1 1G6      -0.292400
@<TRIPOS>BOND
     1     1     2 2   
     2     1     3 1   
     3     1    26 1   
     4     3     4 1   
     5     3     7 1   
     6     3    51 1   
     7     4     5 1   
     8     5     6 3   
     9     7     8 1   
    10     7    52 1   
    11     7    53 1   
    12     8     9 ar  
    13     8    11 ar  
    14     9    10 ar  
    15     9    54 1   
    16    10    13 ar  
    17    10    55 1   
    18    11    12 ar  
    19    11    56 1   
    20    12    13 ar  
    21    12    57 1   
    22    13    58 1   
    23    14    15 2   
    24    14    16 1   
    25    14    27 1   
    26    16    17 1   
    27    16    26 1   
    28    16    59 1   
    29    17    18 1   
    30    17    60 1   
    31    17    61 1   
    32    18    19 ar  
    33    18    25 ar  
    34    19    20 ar  
    35    19    62 1   
    36    20    21 ar  
    37    20    63 1   
    38    21    22 1   
    39    21    24 ar  
    40    22    23 1   
    41    22    64 1   
    42    22    65 1   
    43    23    66 1   
    44    23    67 1   
    45    24    25 ar  
    46    24    68 1   
    47    25    69 1   
    48    26    70 1   
    49    27    28 1   
    50    27    71 1   
    51    28    29 1   
    52    28    31 1   
    53    28    72 1   
    54    29    30 2   
    55    29    50 1   
    56    31    32 1   
    57    31    73 1   
    58    31    74 1   
    59    32    33 1   
    60    32    34 1   
    61    32    75 1   
    62    33    76 1   
    63    33    77 1   
    64    33    78 1   
    65    34    79 1   
    66    34    80 1   
    67    34    81 1   
    68    35    36 2   
    69    36    37 2   
    70    36    38 1   
    71    36   101 1   
    72    38    82 1   
    73    38    83 1   
    74    38    84 1   
    75    39    40 1   
    76    39    87 1   
    77    39    88 1   
    78    39   101 1   
    79    40    41 1   
    80    40    50 1   
    81    40    89 1   
    82    41    42 1   
    83    41    90 1   
    84    41    91 1   
    85    42    43 ar  
    86    42    49 ar  
    87    43    44 ar  
    88    43    92 1   
    89    44    45 ar  
    90    44    93 1   
    91    45    46 1   
    92    45    48 ar  
    93    46    47 1   
    94    46    94 1   
    95    46    95 1   
    96    47    96 1   
    97    47    97 1   
    98    48    49 ar  
    99    48    98 1   
   100    49    99 1   
   101    50   100 1   
   102    85   101 1   
   103    86   101 1   
@<TRIPOS>SUBSTRUCTURE
     1 1G6         1 TEMP              0 ****  ****    0 ROOT
