@<TRIPOS>MOLECULE
1G7
   43    45     1     0     0
SMALL
No Charge or Current Charge


@<TRIPOS>ATOM
      1 OB           0.8520    -3.0150     0.8670 o          1 1G7      -0.553000
      2 CB           0.5610    -1.8450     1.0570 c          1 1G7       0.562000
      3 CAB         -0.9110    -1.3340     1.0460 c6         1 1G7       0.034700
      4 CBB         -1.4540    -1.3610    -0.4110 c3         1 1G7      -0.042100
      5 CGB         -2.8940    -0.8720    -0.5260 ca         1 1G7      -0.095300
      6 CD4         -3.1720     0.4110    -1.0420 ca         1 1G7      -0.154000
      7 CE4         -4.5010     0.8590    -1.1400 ca         1 1G7       0.047100
      8 OH4         -4.7720     2.1060    -1.6410 oh         1 1G7      -0.556100
      9 CZB         -5.5570     0.0240    -0.7210 ca         1 1G7       0.126100
     10 OHB         -6.8430     0.4670    -0.8190 oh         1 1G7      -0.532100
     11 CE3         -5.2840    -1.2520    -0.2060 ca         1 1G7      -0.120000
     12 CD3         -3.9550    -1.6990    -0.1090 ca         1 1G7      -0.101000
     13 NB          -1.0820     0.0150     1.6440 ns         1 1G7      -0.493900
     14 CA          -0.1170     0.9940     1.6630 c          1 1G7       0.561000
     15 OA          -0.4050     2.1410     1.9700 o          1 1G7      -0.557000
     16 NA           1.5330    -0.9290     1.3830 ns         1 1G7      -0.495900
     17 CAA          1.3470     0.5450     1.3770 c6         1 1G7       0.035700
     18 CBA          1.8180     1.1520     0.0260 c3         1 1G7      -0.038100
     19 CGA          3.2400     0.7530    -0.3520 ca         1 1G7      -0.135300
     20 CD1          3.4690    -0.2230    -1.3420 ca         1 1G7      -0.065500
     21 CE1          4.7820    -0.5930    -1.6790 ca         1 1G7      -0.174000
     22 CZA          5.8710     0.0080    -1.0310 ca         1 1G7       0.144100
     23 OHA          7.1400    -0.3590    -1.3660 oh         1 1G7      -0.530100
     24 CE2          5.6510     0.9800    -0.0430 ca         1 1G7      -0.174000
     25 CD2          4.3380     1.3520     0.2970 ca         1 1G7      -0.065500
     26 H1          -1.4860    -2.0490     1.6510 h1         1 1G7       0.088700
     27 H2          -0.8040    -0.7570    -1.0550 hc         1 1G7       0.064700
     28 H3          -1.3880    -2.3820    -0.8070 hc         1 1G7       0.064700
     29 H4          -2.3550     1.0540    -1.3610 ha         1 1G7       0.114000
     30 H5          -3.9250     2.5420    -1.8820 ho         1 1G7       0.477000
     31 H6          -6.7860     1.3720    -1.2000 ho         1 1G7       0.483000
     32 H7          -6.1010    -1.8940     0.1170 ha         1 1G7       0.134000
     33 H8          -3.7490    -2.6900     0.2910 ha         1 1G7       0.121000
     34 H9          -2.0210     0.3210     1.8730 hn         1 1G7       0.330500
     35 H10          2.4790    -1.2910     1.4240 hn         1 1G7       0.330500
     36 H11          1.9590     0.9670     2.1870 h1         1 1G7       0.087700
     37 H12          1.1250     0.8540    -0.7710 hc         1 1G7       0.062200
     38 H13          1.7500     2.2470     0.0740 hc         1 1G7       0.062200
     39 H14          2.6300    -0.6980    -1.8480 ha         1 1G7       0.115500
     40 H15          4.9540    -1.3470    -2.4430 ha         1 1G7       0.124500
     41 H16          7.7670     0.1600    -0.8180 ho         1 1G7       0.466000
     42 H17          6.4890     1.4510     0.4650 ha         1 1G7       0.124500
     43 H18          4.1740     2.1060     1.0640 ha         1 1G7       0.115500
@<TRIPOS>BOND
     1     1     2 2   
     2     2     3 1   
     3     2    16 1   
     4     3     4 1   
     5     3    13 1   
     6     3    26 1   
     7     4     5 1   
     8     4    27 1   
     9     4    28 1   
    10     5     6 ar  
    11     5    12 ar  
    12     6     7 ar  
    13     6    29 1   
    14     7     8 1   
    15     7     9 ar  
    16     8    30 1   
    17     9    10 1   
    18     9    11 ar  
    19    10    31 1   
    20    11    12 ar  
    21    11    32 1   
    22    12    33 1   
    23    13    14 1   
    24    13    34 1   
    25    14    15 2   
    26    14    17 1   
    27    16    17 1   
    28    16    35 1   
    29    17    18 1   
    30    17    36 1   
    31    18    19 1   
    32    18    37 1   
    33    18    38 1   
    34    19    20 ar  
    35    19    25 ar  
    36    20    21 ar  
    37    20    39 1   
    38    21    22 ar  
    39    21    40 1   
    40    22    23 1   
    41    22    24 ar  
    42    23    41 1   
    43    24    25 ar  
    44    24    42 1   
    45    25    43 1   
@<TRIPOS>SUBSTRUCTURE
     1 1G7         1 TEMP              0 ****  ****    0 ROOT
