@<TRIPOS>MOLECULE
1G7
   43    45     1     0     0
SMALL
bcc


@<TRIPOS>ATOM
      1 OB           0.7460    -3.0660     1.1390 o          1 1G7      -0.628500
      2 CB           0.5210    -1.8700     1.2310 c          1 1G7       0.704500
      3 CAB         -0.8950    -1.3480     1.1030 c6         1 1G7       0.034700
      4 CBB         -1.3370    -1.4110    -0.3740 c3         1 1G7      -0.042100
      5 CGB         -2.7360    -0.8990    -0.5600 ca         1 1G7      -0.095300
      6 CD4         -2.9580     0.4110    -0.9820 ca         1 1G7      -0.172000
      7 CE4         -4.2440     0.9110    -1.1160 ca         1 1G7       0.047100
      8 OH4         -4.5250     2.1710    -1.5210 oh         1 1G7      -0.517100
      9 CZB         -5.3450     0.0970    -0.8210 ca         1 1G7       0.126100
     10 OHB         -6.6120     0.5480    -0.9390 oh         1 1G7      -0.493100
     11 CE3         -5.1250    -1.2050    -0.4000 ca         1 1G7      -0.138000
     12 CD3         -3.8330    -1.6980    -0.2680 ca         1 1G7      -0.119000
     13 NB          -1.0540    -0.0320     1.6770 ns         1 1G7      -0.560900
     14 CA          -0.1030     0.9010     1.7980 c          1 1G7       0.703500
     15 OA          -0.3220     2.0410     2.1770 o          1 1G7      -0.632500
     16 NA           1.4750    -0.9520     1.4250 ns         1 1G7      -0.562900
     17 CAA          1.3010     0.4830     1.4120 c6         1 1G7       0.035700
     18 CBA          1.6730     1.1150     0.0550 c3         1 1G7      -0.038100
     19 CGA          3.0690     0.7580    -0.3650 ca         1 1G7      -0.135300
     20 CD1          3.3140    -0.3020    -1.2340 ca         1 1G7      -0.083500
     21 CE1          4.6020    -0.6580    -1.5990 ca         1 1G7      -0.192000
     22 CZA          5.6880     0.0500    -1.0900 ca         1 1G7       0.144100
     23 OHA          6.9250    -0.3270    -1.4730 oh         1 1G7      -0.491100
     24 CE2          5.4620     1.1130    -0.2190 ca         1 1G7      -0.192000
     25 CD2          4.1660     1.4540     0.1350 ca         1 1G7      -0.083500
     26 H1          -1.5290    -2.0300     1.6740 h1         1 1G7       0.088700
     27 H2          -0.6410    -0.8350    -0.9890 hc         1 1G7       0.064700
     28 H3          -1.2640    -2.4500    -0.7000 hc         1 1G7       0.064700
     29 H4          -2.1140     1.0530    -1.2170 ha         1 1G7       0.132000
     30 H5          -3.7160     2.6580    -1.7140 ho         1 1G7       0.438000
     31 H6          -6.6180     1.4560    -1.2620 ho         1 1G7       0.444000
     32 H7          -5.9770    -1.8360    -0.1770 ha         1 1G7       0.152000
     33 H8          -3.6890    -2.7210     0.0590 ha         1 1G7       0.139000
     34 H9          -1.9980     0.2520     1.9000 hn         1 1G7       0.330500
     35 H10          2.4240    -1.2930     1.4860 hn         1 1G7       0.330500
     36 H11          1.9660     0.8970     2.1720 h1         1 1G7       0.087700
     37 H12          0.9590     0.7930    -0.7080 hc         1 1G7       0.062200
     38 H13          1.5690     2.1970     0.1510 hc         1 1G7       0.062200
     39 H14          2.4800    -0.8610    -1.6440 ha         1 1G7       0.133500
     40 H15          4.7680    -1.4830    -2.2810 ha         1 1G7       0.142500
     41 H16          7.5880     0.2430    -1.0690 ho         1 1G7       0.427000
     42 H17          6.2960     1.6790     0.1800 ha         1 1G7       0.142500
     43 H18          4.0110     2.2870     0.8130 ha         1 1G7       0.133500
@<TRIPOS>BOND
     1     1     2 2   
     2     2     3 1   
     3     2    16 1   
     4     3     4 1   
     5     3    13 1   
     6     3    26 1   
     7     4     5 1   
     8     4    27 1   
     9     4    28 1   
    10     5     6 ar  
    11     5    12 ar  
    12     6     7 ar  
    13     6    29 1   
    14     7     8 1   
    15     7     9 ar  
    16     8    30 1   
    17     9    10 1   
    18     9    11 ar  
    19    10    31 1   
    20    11    12 ar  
    21    11    32 1   
    22    12    33 1   
    23    13    14 1   
    24    13    34 1   
    25    14    15 2   
    26    14    17 1   
    27    16    17 1   
    28    16    35 1   
    29    17    18 1   
    30    17    36 1   
    31    18    19 1   
    32    18    37 1   
    33    18    38 1   
    34    19    20 ar  
    35    19    25 ar  
    36    20    21 ar  
    37    20    39 1   
    38    21    22 ar  
    39    21    40 1   
    40    22    23 1   
    41    22    24 ar  
    42    23    41 1   
    43    24    25 ar  
    44    24    42 1   
    45    25    43 1   
@<TRIPOS>SUBSTRUCTURE
     1 1G7         1 TEMP              0 ****  ****    0 ROOT
