@<TRIPOS>MOLECULE
1G8
   27    27     1     0     0
SMALL
bcc


@<TRIPOS>ATOM
      1 C25          3.6390     0.2290     0.0020 c          1 1G8       0.932600
      2 O26          4.3230    -0.8030    -0.1450 o          1 1G8      -0.834800
      3 C15          2.1630     0.0440     0.4220 c3         1 1G8       0.027500
      4 C16          1.2900     0.2090    -0.8470 c3         1 1G8      -0.072100
      5 C17         -0.1750     0.0890    -0.5520 ca         1 1G8      -0.041300
      6 C22         -0.9040     1.1890    -0.0930 ca         1 1G8      -0.141500
      7 C21         -2.2430     1.0760     0.2390 ca         1 1G8      -0.117000
      8 C20         -2.9050    -0.1480     0.1360 ca         1 1G8      -0.120300
      9 C23         -4.3560    -0.2760     0.5180 c3         1 1G8       0.202100
     10 N24         -5.1720     0.7180    -0.1640 n8         1 1G8      -0.882800
     11 C19         -2.1870    -1.2430    -0.3270 ca         1 1G8      -0.117000
     12 C18         -0.8420    -1.1270    -0.6650 ca         1 1G8      -0.141500
     13 N14          1.9760    -1.2080     1.1250 n8         1 1G8      -0.882800
     14 H32          1.9030     0.8650     1.1000 h1         1 1G8       0.047700
     15 H33          1.5020     1.1850    -1.2900 hc         1 1G8       0.055200
     16 H34          1.5850    -0.5510    -1.5780 hc         1 1G8       0.055200
     17 H35         -0.4100     2.1500     0.0030 ha         1 1G8       0.132000
     18 H36         -2.7860     1.9490     0.5800 ha         1 1G8       0.119500
     19 H37         -4.6760    -1.3120     0.3430 h1         1 1G8       0.025200
     20 H38         -4.4580    -0.1070     1.5940 h1         1 1G8       0.025200
     21 H39         -5.1950     0.5100    -1.1540 hn         1 1G8       0.330300
     22 H40         -6.1290     0.6410     0.1580 hn         1 1G8       0.330300
     23 H42         -2.6810    -2.2030    -0.4300 ha         1 1G8       0.119500
     24 H43         -0.3110    -1.9980    -1.0350 ha         1 1G8       0.132000
     25 H44          0.9930    -1.4450     1.1760 hn         1 1G8       0.325800
     26 OXT          4.0070     1.4030    -0.2030 o          1 1G8      -0.834800
     27 H2           2.4330    -1.9450     0.6020 hn         1 1G8       0.325800
@<TRIPOS>BOND
     1     1     2 1   
     2     1     3 1   
     3     1    26 1   
     4     3     4 1   
     5     3    13 1   
     6     3    14 1   
     7     4     5 1   
     8     4    15 1   
     9     4    16 1   
    10     5     6 ar  
    11     5    12 ar  
    12     6     7 ar  
    13     6    17 1   
    14     7     8 ar  
    15     7    18 1   
    16     8     9 1   
    17     8    11 ar  
    18     9    10 1   
    19     9    19 1   
    20     9    20 1   
    21    10    21 1   
    22    10    22 1   
    23    11    12 ar  
    24    11    23 1   
    25    12    24 1   
    26    13    25 1   
    27    13    27 1   
@<TRIPOS>SUBSTRUCTURE
     1 1G8         1 TEMP              0 ****  ****    0 ROOT
