@<TRIPOS>MOLECULE
1G8
   27    27     1     0     0
SMALL
No Charge or Current Charge


@<TRIPOS>ATOM
      1 C25          3.7540     0.3180    -0.1040 c          1 1G8       0.722000
      2 O26          4.3170    -0.5640    -0.7430 o          1 1G8      -0.729500
      3 C15          2.2540     0.0830     0.3560 c3         1 1G8       0.027500
      4 C16          1.2950     0.1040    -0.8640 c3         1 1G8      -0.072100
      5 C17         -0.1840     0.0440    -0.4860 ca         1 1G8      -0.041300
      6 C22         -0.7990     1.1420     0.1450 ca         1 1G8      -0.123500
      7 C21         -2.1610     1.0930     0.4900 ca         1 1G8      -0.099000
      8 C20         -2.9270    -0.0550     0.2070 ca         1 1G8      -0.120300
      9 C23         -4.4000    -0.1120     0.5900 c3         1 1G8       0.202100
     10 N24         -5.2530     0.4340    -0.4780 n8         1 1G8      -0.993200
     11 C19         -2.3120    -1.1530    -0.4260 ca         1 1G8      -0.099000
     12 C18         -0.9500    -1.1030    -0.7710 ca         1 1G8      -0.123500
     13 N14          1.9870    -1.1380     1.2020 n8         1 1G8      -0.993200
     14 H32          1.9920     0.9510     0.9770 h1         1 1G8       0.047700
     15 H33          1.4820     1.0210    -1.4360 hc         1 1G8       0.055200
     16 H34          1.5530    -0.7220    -1.5380 hc         1 1G8       0.055200
     17 H35         -0.2220     2.0360     0.3670 ha         1 1G8       0.114000
     18 H36         -2.6240     1.9490     0.9770 ha         1 1G8       0.101500
     19 H37         -4.6950    -1.1540     0.7790 h1         1 1G8       0.025200
     20 H38         -4.5710     0.4640     1.5100 h1         1 1G8       0.025200
     21 H39         -5.1250    -0.1390    -1.3190 hn         1 1G8       0.385500
     22 H40         -6.2360     0.2850    -0.2240 hn         1 1G8       0.385500
     23 H42         -2.8900    -2.0470    -0.6500 ha         1 1G8       0.101500
     24 H43         -0.4910    -1.9590    -1.2610 ha         1 1G8       0.114000
     25 H44          0.9710    -1.2650     1.2740 hn         1 1G8       0.381000
     26 OXT          4.3180     1.3440     0.2550 o          1 1G8      -0.729500
     27 H2           2.3010    -1.9680     0.6840 hn         1 1G8       0.381000
@<TRIPOS>BOND
     1     1     2 1   
     2     1     3 1   
     3     1    26 1   
     4     3     4 1   
     5     3    13 1   
     6     3    14 1   
     7     4     5 1   
     8     4    15 1   
     9     4    16 1   
    10     5     6 ar  
    11     5    12 ar  
    12     6     7 ar  
    13     6    17 1   
    14     7     8 ar  
    15     7    18 1   
    16     8     9 1   
    17     8    11 ar  
    18     9    10 1   
    19     9    19 1   
    20     9    20 1   
    21    10    21 1   
    22    10    22 1   
    23    11    12 ar  
    24    11    23 1   
    25    12    24 1   
    26    13    25 1   
    27    13    27 1   
@<TRIPOS>SUBSTRUCTURE
     1 1G8         1 TEMP              0 ****  ****    0 ROOT
