@<TRIPOS>MOLECULE
1G9
   31    32     1     0     0
SMALL
No Charge or Current Charge


@<TRIPOS>ATOM
      1 OB           2.5740    -2.7540    -0.2900 o          1 1G9      -0.555000
      2 CB           2.3620    -1.5770    -0.0390 c          1 1G9       0.563000
      3 NA           3.3930    -0.6650    -0.0530 ns         1 1G9      -0.498900
      4 CAA          3.2260     0.8080     0.0000 c6         1 1G9       0.033700
      5 CBA          3.2630     1.3960    -1.4350 c3         1 1G9      -0.109100
      6 CAB          0.9640    -1.0540     0.4040 c6         1 1G9       0.035700
      7 NB           0.9950     0.3000     1.0140 ns         1 1G9      -0.494900
      8 CA           1.9230     1.2710     0.7230 c          1 1G9       0.563000
      9 OA           1.7510     2.4220     1.0930 o          1 1G9      -0.556000
     10 CBB         -0.0090    -1.0870    -0.8090 c3         1 1G9      -0.038100
     11 CGB         -1.4090    -0.5830    -0.4730 ca         1 1G9      -0.134300
     12 CD4         -1.8210     0.7020    -0.8770 ca         1 1G9      -0.065000
     13 CE4         -3.1100     1.1650    -0.5570 ca         1 1G9      -0.174500
     14 CZB         -3.9910     0.3450     0.1660 ca         1 1G9       0.144100
     15 OHB         -5.2410     0.7860     0.4800 oh         1 1G9      -0.531100
     16 CE3         -3.5850    -0.9340     0.5710 ca         1 1G9      -0.174500
     17 CD3         -2.2970    -1.4000     0.2540 ca         1 1G9      -0.065000
     18 H1           4.3070    -1.0400    -0.2810 hn         1 1G9       0.323500
     19 H2           4.0610     1.2270     0.5780 h1         1 1G9       0.085700
     20 H3           2.4290     1.0250    -2.0410 hc         1 1G9       0.051367
     21 H4           3.2010     2.4910    -1.4150 hc         1 1G9       0.051367
     22 H5           4.1950     1.1290    -1.9470 hc         1 1G9       0.051367
     23 H6           0.6020    -1.7600     1.1650 h1         1 1G9       0.087700
     24 H7           0.1750     0.6160     1.5190 hn         1 1G9       0.330500
     25 H8           0.4120    -0.4930    -1.6310 hc         1 1G9       0.064700
     26 H9          -0.0760    -2.1110    -1.1960 hc         1 1G9       0.064700
     27 H10         -1.1430     1.3450    -1.4350 ha         1 1G9       0.115500
     28 H11         -3.4160     2.1590    -0.8750 ha         1 1G9       0.124000
     29 H12         -5.3500     1.6920     0.1190 ho         1 1G9       0.467000
     30 H13         -4.2670    -1.5680     1.1320 ha         1 1G9       0.124000
     31 H14         -1.9900    -2.3940     0.5730 ha         1 1G9       0.115500
@<TRIPOS>BOND
     1     1     2 2   
     2     2     3 1   
     3     2     6 1   
     4     3     4 1   
     5     3    18 1   
     6     4     5 1   
     7     4     8 1   
     8     4    19 1   
     9     5    20 1   
    10     5    21 1   
    11     5    22 1   
    12     6     7 1   
    13     6    10 1   
    14     6    23 1   
    15     7     8 1   
    16     7    24 1   
    17     8     9 2   
    18    10    11 1   
    19    10    25 1   
    20    10    26 1   
    21    11    12 ar  
    22    11    17 ar  
    23    12    13 ar  
    24    12    27 1   
    25    13    14 ar  
    26    13    28 1   
    27    14    15 1   
    28    14    16 ar  
    29    15    29 1   
    30    16    17 ar  
    31    16    30 1   
    32    17    31 1   
@<TRIPOS>SUBSTRUCTURE
     1 1G9         1 TEMP              0 ****  ****    0 ROOT
