@<TRIPOS>MOLECULE
1G9
   31    32     1     0     0
SMALL
bcc


@<TRIPOS>ATOM
      1 OB           2.4610    -2.7440    -0.0670 o          1 1G9      -0.630500
      2 CB           2.3140    -1.5410     0.0860 c          1 1G9       0.705500
      3 NA           3.3080    -0.6550    -0.0350 ns         1 1G9      -0.565900
      4 CAA          3.1780     0.7880    -0.0380 c6         1 1G9       0.033700
      5 CBA          3.1400     1.3580    -1.4560 c3         1 1G9      -0.109100
      6 CAB          0.9480    -0.9800     0.4200 c6         1 1G9       0.035700
      7 NB           1.0130     0.3550     0.9690 ns         1 1G9      -0.561900
      8 CA           1.9740     1.2600     0.7490 c          1 1G9       0.705500
      9 OA           1.9090     2.4160     1.1390 o          1 1G9      -0.631500
     10 CBB          0.0310    -1.0630    -0.8160 c3         1 1G9      -0.038100
     11 CGB         -1.3580    -0.5820    -0.5100 ca         1 1G9      -0.134300
     12 CD4         -1.7620     0.7110    -0.8260 ca         1 1G9      -0.083000
     13 CE4         -3.0320     1.1710    -0.5090 ca         1 1G9      -0.192500
     14 CZB         -3.9310     0.3340     0.1450 ca         1 1G9       0.144100
     15 OHB         -5.1790     0.7200     0.4780 oh         1 1G9      -0.492100
     16 CE3         -3.5420    -0.9650     0.4700 ca         1 1G9      -0.192500
     17 CD3         -2.2720    -1.4070     0.1440 ca         1 1G9      -0.083000
     18 H1           4.2130    -1.0230    -0.2950 hn         1 1G9       0.323500
     19 H2           4.0530     1.1920     0.4740 h1         1 1G9       0.085700
     20 H3           2.2680     1.0010    -2.0050 hc         1 1G9       0.051367
     21 H4           3.1160     2.4460    -1.4340 hc         1 1G9       0.051367
     22 H5           4.0320     1.0510    -2.0020 hc         1 1G9       0.051367
     23 H6           0.5340    -1.6290     1.1960 h1         1 1G9       0.087700
     24 H7           0.1950     0.6770     1.4690 hn         1 1G9       0.330500
     25 H8           0.4630    -0.4740    -1.6290 hc         1 1G9       0.064700
     26 H9           0.0090    -2.1020    -1.1500 hc         1 1G9       0.064700
     27 H10         -1.0790     1.3760    -1.3410 ha         1 1G9       0.133500
     28 H11         -3.3190     2.1820    -0.7760 ha         1 1G9       0.142000
     29 H12         -5.3310     1.6330     0.2110 ho         1 1G9       0.428000
     30 H13         -4.2380    -1.6240     0.9750 ha         1 1G9       0.142000
     31 H14         -1.9900    -2.4210     0.4020 ha         1 1G9       0.133500
@<TRIPOS>BOND
     1     1     2 2   
     2     2     3 1   
     3     2     6 1   
     4     3     4 1   
     5     3    18 1   
     6     4     5 1   
     7     4     8 1   
     8     4    19 1   
     9     5    20 1   
    10     5    21 1   
    11     5    22 1   
    12     6     7 1   
    13     6    10 1   
    14     6    23 1   
    15     7     8 1   
    16     7    24 1   
    17     8     9 2   
    18    10    11 1   
    19    10    25 1   
    20    10    26 1   
    21    11    12 ar  
    22    11    17 ar  
    23    12    13 ar  
    24    12    27 1   
    25    13    14 ar  
    26    13    28 1   
    27    14    15 1   
    28    14    16 ar  
    29    15    29 1   
    30    16    17 ar  
    31    16    30 1   
    32    17    31 1   
@<TRIPOS>SUBSTRUCTURE
     1 1G9         1 TEMP              0 ****  ****    0 ROOT
