@<TRIPOS>MOLECULE
1GB
   45    48     1     0     0
SMALL
No Charge or Current Charge


@<TRIPOS>ATOM
      1 OB           0.5240    -1.6450     2.2830 o          1 1GB      -0.555000
      2 CB           0.1910    -0.5760     1.7980 c          1 1GB       0.561000
      3 CAB         -1.2870    -0.2460     1.4340 c6         1 1GB       0.034700
      4 CBB         -1.7060    -1.0760     0.1880 c3         1 1GB      -0.041100
      5 CGB         -3.1410    -0.8110    -0.2570 ca         1 1GB      -0.132300
      6 CD4         -3.4020    -0.0100    -1.3860 ca         1 1GB      -0.065000
      7 CE4         -4.7270     0.2360    -1.7860 ca         1 1GB      -0.174500
      8 CZB         -5.7950    -0.3140    -1.0630 ca         1 1GB       0.143100
      9 OHB         -7.0750    -0.0690    -1.4590 oh         1 1GB      -0.531100
     10 CE3         -5.5420    -1.1130     0.0640 ca         1 1GB      -0.174500
     11 CD3         -4.2170    -1.3610     0.4670 ca         1 1GB      -0.065000
     12 NB          -1.5400     1.2000     1.2100 ns         1 1GB      -0.494900
     13 CA          -0.6050     2.1010     0.7570 c          1 1GB       0.561000
     14 OA          -0.9480     3.2140     0.3900 o          1 1GB      -0.556000
     15 NA           1.1130     0.4300     1.6260 ns         1 1GB      -0.491900
     16 CAA          0.8880     1.6660     0.8330 c6         1 1GB       0.034700
     17 CBA          1.4520     1.5190    -0.6090 c3         1 1GB      -0.013200
     18 CGA          2.9140     1.1550    -0.6610 cc         1 1GB      -0.159400
     19 CD2          3.4770    -0.1670    -0.6360 ca         1 1GB      -0.097800
     20 CE2          2.8510    -1.4220    -0.5980 ca         1 1GB      -0.061000
     21 CZ3          3.6710    -2.5700    -0.5830 ca         1 1GB      -0.133000
     22 CH2          5.0800    -2.4420    -0.6110 ca         1 1GB      -0.089000
     23 CZ2          5.6770    -1.1630    -0.6570 ca         1 1GB      -0.128000
     24 CE1          4.8370    -0.0410    -0.6700 ca         1 1GB      -0.049200
     25 NE1          5.2050     1.2900    -0.7200 na         1 1GB      -0.220700
     26 CD1          3.9960     2.0290    -0.7160 cd         1 1GB      -0.150100
     27 H1          -1.8920    -0.5670     2.2940 h1         1 1GB       0.087700
     28 H2          -1.0170    -0.8660    -0.6400 hc         1 1GB       0.064200
     29 H3          -1.5860    -2.1450     0.4030 hc         1 1GB       0.064200
     30 H4          -2.5800     0.4250    -1.9520 ha         1 1GB       0.116000
     31 H5          -4.9240     0.8550    -2.6570 ha         1 1GB       0.123500
     32 H6          -7.6840    -0.5300    -0.8430 ho         1 1GB       0.466000
     33 H7          -6.3630    -1.5440     0.6320 ha         1 1GB       0.123500
     34 H8          -4.0280    -1.9800     1.3420 ha         1 1GB       0.116000
     35 H9          -2.5020     1.5190     1.1880 hn         1 1GB       0.328500
     36 H10          2.0650     0.1980     1.8870 hn         1 1GB       0.332500
     37 H11          1.4190     2.4880     1.3320 h1         1 1GB       0.084700
     38 H12          0.8730     0.7650    -1.1570 hc         1 1GB       0.061200
     39 H13          1.3030     2.4580    -1.1560 hc         1 1GB       0.061200
     40 H14          1.7680    -1.5120    -0.5810 ha         1 1GB       0.112000
     41 H15          3.2180    -3.5580    -0.5510 ha         1 1GB       0.115000
     42 H16          5.7060    -3.3310    -0.6010 ha         1 1GB       0.112000
     43 H17          6.7590    -1.0550    -0.6840 ha         1 1GB       0.114000
     44 H18          6.1500     1.6620    -0.7520 hn         1 1GB       0.352000
     45 H19          3.9930     3.1160    -0.7440 h4         1 1GB       0.215000
@<TRIPOS>BOND
     1     1     2 2   
     2     2     3 1   
     3     2    15 1   
     4     3     4 1   
     5     3    12 1   
     6     3    27 1   
     7     4     5 1   
     8     4    28 1   
     9     4    29 1   
    10     5     6 ar  
    11     5    11 ar  
    12     6     7 ar  
    13     6    30 1   
    14     7     8 ar  
    15     7    31 1   
    16     8     9 1   
    17     8    10 ar  
    18     9    32 1   
    19    10    11 ar  
    20    10    33 1   
    21    11    34 1   
    22    12    13 1   
    23    12    35 1   
    24    13    14 2   
    25    13    16 1   
    26    15    16 1   
    27    15    36 1   
    28    16    17 1   
    29    16    37 1   
    30    17    18 1   
    31    17    38 1   
    32    17    39 1   
    33    18    19 1   
    34    18    26 2   
    35    19    20 ar  
    36    19    24 ar  
    37    20    21 ar  
    38    20    40 1   
    39    21    22 ar  
    40    21    41 1   
    41    22    23 ar  
    42    22    42 1   
    43    23    24 ar  
    44    23    43 1   
    45    24    25 1   
    46    25    26 1   
    47    25    44 1   
    48    26    45 1   
@<TRIPOS>SUBSTRUCTURE
     1 1GB         1 TEMP              0 ****  ****    0 ROOT
