@<TRIPOS>MOLECULE
1GB
   45    48     1     0     0
SMALL
bcc


@<TRIPOS>ATOM
      1 OB           0.4480    -1.3740     2.6430 o          1 1GB      -0.630500
      2 CB           0.1760    -0.3570     2.0260 c          1 1GB       0.703500
      3 CAB         -1.2380    -0.1080     1.5410 c6         1 1GB       0.034700
      4 CBB         -1.5120    -0.9860     0.3010 c3         1 1GB      -0.041100
      5 CGB         -2.9030    -0.7970    -0.2280 ca         1 1GB      -0.132300
      6 CD4         -3.1760     0.1360    -1.2260 ca         1 1GB      -0.083000
      7 CE4         -4.4630     0.3450    -1.6920 ca         1 1GB      -0.192500
      8 CZB         -5.5220    -0.3870    -1.1590 ca         1 1GB       0.143100
      9 OHB         -6.7580    -0.1550    -1.6440 oh         1 1GB      -0.492100
     10 CE3         -5.2680    -1.3250    -0.1610 ca         1 1GB      -0.192500
     11 CD3         -3.9720    -1.5190     0.2940 ca         1 1GB      -0.083000
     12 NB          -1.4950     1.2930     1.3050 ns         1 1GB      -0.561900
     13 CA          -0.5930     2.2030     0.9160 c          1 1GB       0.703500
     14 OA          -0.8830     3.3440     0.5960 o          1 1GB      -0.631500
     15 NA           1.0780     0.5800     1.7080 ns         1 1GB      -0.558900
     16 CAA          0.8490     1.7370     0.8710 c6         1 1GB       0.034700
     17 CBA          1.2840     1.5120    -0.5930 c3         1 1GB      -0.013200
     18 CGA          2.7120     1.0930    -0.7030 cc         1 1GB      -0.159400
     19 CD2          3.2310    -0.2430    -0.6720 ca         1 1GB      -0.097800
     20 CE2          2.6480    -1.5130    -0.5820 ca         1 1GB      -0.079000
     21 CZ3          3.4620    -2.6280    -0.5930 ca         1 1GB      -0.151000
     22 CH2          4.8590    -2.5040    -0.6920 ca         1 1GB      -0.107000
     23 CZ2          5.4640    -1.2660    -0.7830 ca         1 1GB      -0.146000
     24 CE1          4.6370    -0.1430    -0.7730 ca         1 1GB      -0.049200
     25 NE1          4.9450     1.1830    -0.8560 na         1 1GB      -0.170400
     26 CD1          3.7960     1.9180    -0.8160 cd         1 1GB      -0.100100
     27 H1          -1.9060    -0.4330     2.3410 h1         1 1GB       0.087700
     28 H2          -0.7810    -0.7550    -0.4780 hc         1 1GB       0.064200
     29 H3          -1.3510    -2.0280     0.5860 hc         1 1GB       0.064200
     30 H4          -2.3650     0.7090    -1.6600 ha         1 1GB       0.134000
     31 H5          -4.6480     1.0720    -2.4730 ha         1 1GB       0.141500
     32 H6          -7.4000    -0.7290    -1.2120 ho         1 1GB       0.427000
     33 H7          -6.0780    -1.9100     0.2580 ha         1 1GB       0.141500
     34 H8          -3.7980    -2.2570     1.0690 ha         1 1GB       0.134000
     35 H9          -2.4620     1.5870     1.3120 hn         1 1GB       0.328500
     36 H10          2.0340     0.4010     1.9810 hn         1 1GB       0.332500
     37 H11          1.4510     2.5530     1.2740 h1         1 1GB       0.084700
     38 H12          0.6360     0.7640    -1.0590 hc         1 1GB       0.061200
     39 H13          1.1220     2.4450    -1.1360 hc         1 1GB       0.061200
     40 H14          1.5730    -1.6260    -0.5120 ha         1 1GB       0.130000
     41 H15          3.0220    -3.6150    -0.5250 ha         1 1GB       0.133000
     42 H16          5.4730    -3.3950    -0.6980 ha         1 1GB       0.130000
     43 H17          6.5400    -1.1710    -0.8600 ha         1 1GB       0.132000
     44 H18          5.8700     1.5650    -0.9590 hn         1 1GB       0.301700
     45 H19          3.8310     2.9950    -0.8780 h4         1 1GB       0.165000
@<TRIPOS>BOND
     1     1     2 2   
     2     2     3 1   
     3     2    15 1   
     4     3     4 1   
     5     3    12 1   
     6     3    27 1   
     7     4     5 1   
     8     4    28 1   
     9     4    29 1   
    10     5     6 ar  
    11     5    11 ar  
    12     6     7 ar  
    13     6    30 1   
    14     7     8 ar  
    15     7    31 1   
    16     8     9 1   
    17     8    10 ar  
    18     9    32 1   
    19    10    11 ar  
    20    10    33 1   
    21    11    34 1   
    22    12    13 1   
    23    12    35 1   
    24    13    14 2   
    25    13    16 1   
    26    15    16 1   
    27    15    36 1   
    28    16    17 1   
    29    16    37 1   
    30    17    18 1   
    31    17    38 1   
    32    17    39 1   
    33    18    19 1   
    34    18    26 2   
    35    19    20 ar  
    36    19    24 ar  
    37    20    21 ar  
    38    20    40 1   
    39    21    22 ar  
    40    21    41 1   
    41    22    23 ar  
    42    22    42 1   
    43    23    24 ar  
    44    23    43 1   
    45    24    25 1   
    46    25    26 1   
    47    25    44 1   
    48    26    45 1   
@<TRIPOS>SUBSTRUCTURE
     1 1GB         1 TEMP              0 ****  ****    0 ROOT
