@<TRIPOS>MOLECULE
1GD
   37    38     1     0     0
SMALL
abcg2


@<TRIPOS>ATOM
      1 C13          3.7780     1.6700    -0.5140 c3         1 1GD      -0.111100
      2 C15          3.9590    -0.7300    -1.2320 ca         1 1GD      -0.094500
      3 C17          5.5240    -2.2470    -0.2110 ca         1 1GD      -0.103000
      4 C20         -2.1270     1.5720     0.6440 ca         1 1GD      -0.125500
      5 C21         -3.0840     0.5830     0.5160 ca         1 1GD      -0.005500
      6 N1          -4.7080    -1.4940    -1.3610 n8         1 1GD      -1.004100
      7 O3          -4.8690    -1.8440     1.0890 o          1 1GD      -0.543500
      8 O4          -3.2110    -3.2370    -0.1590 o          1 1GD      -0.543500
      9 C5          -2.6870    -0.6960     0.1440 ca         1 1GD      -0.274500
     10 C6          -1.3540    -0.9880    -0.0990 ca         1 1GD      -0.005500
     11 C7          -0.4060     0.0160     0.0370 ca         1 1GD      -0.125500
     12 C8          -0.7790     1.2990     0.4140 ca         1 1GD      -0.047300
     13 C9           0.2310     2.4010     0.6160 c3         1 1GD       0.136300
     14 N10          1.4580     2.2150    -0.1110 ns         1 1GD      -0.511900
     15 C11          2.6060     1.7860     0.4460 c          1 1GD       0.601100
     16 O12          2.7170     1.5080     1.6290 o          1 1GD      -0.585100
     17 C14          4.4080     0.3080    -0.4190 ca         1 1GD      -0.081300
     18 C16          4.5120    -2.0000    -1.1300 ca         1 1GD      -0.109000
     19 C18          5.9780    -1.2160     0.6030 ca         1 1GD      -0.109000
     20 C19          5.4200     0.0510     0.5000 ca         1 1GD      -0.094500
     21 H1           3.4700     1.8770    -1.5400 hc         1 1GD       0.064200
     22 H2           4.5010     2.4420    -0.2390 hc         1 1GD       0.064200
     23 H3           3.1750    -0.5460    -1.9570 ha         1 1GD       0.111000
     24 H4           5.9600    -3.2350    -0.1330 ha         1 1GD       0.114000
     25 H5          -2.4340     2.5710     0.9290 ha         1 1GD       0.122000
     26 H6          -4.1250     0.8130     0.6990 ha         1 1GD       0.137500
     27 H7          -4.1720    -1.6630    -2.2070 hn         1 1GD       0.472000
     28 H8          -5.6180    -1.9410    -1.4290 hn         1 1GD       0.472000
     29 H9          -1.0450    -1.9820    -0.3900 ha         1 1GD       0.137500
     30 H10          0.6310    -0.2190    -0.1620 ha         1 1GD       0.122000
     31 H11         -0.2100     3.3560     0.3230 h1         1 1GD       0.071700
     32 H12          0.4650     2.4810     1.6790 h1         1 1GD       0.071700
     33 H13          1.4440     2.4100    -1.0980 hn         1 1GD       0.313500
     34 H14          4.1550    -2.7940    -1.7720 ha         1 1GD       0.114000
     35 H15          6.7700    -1.3980     1.3180 ha         1 1GD       0.114000
     36 H16          5.7830     0.8490     1.1360 ha         1 1GD       0.111000
     37 S02         -3.9070    -1.9670     0.0040 sy         1 1GD       1.126600
@<TRIPOS>BOND
     1     1    15 1   
     2     1    17 1   
     3     1    21 1   
     4     1    22 1   
     5     2    17 ar  
     6     2    18 ar  
     7     2    23 1   
     8     3    18 ar  
     9     3    19 ar  
    10     3    24 1   
    11     4     5 ar  
    12     4    12 ar  
    13     4    25 1   
    14     5     9 ar  
    15     5    26 1   
    16     6    27 1   
    17     6    28 1   
    18     6    37 1   
    19     7    37 2   
    20     8    37 2   
    21     9    10 ar  
    22     9    37 1   
    23    10    11 ar  
    24    10    29 1   
    25    11    12 ar  
    26    11    30 1   
    27    12    13 1   
    28    13    14 1   
    29    13    31 1   
    30    13    32 1   
    31    14    15 1   
    32    14    33 1   
    33    15    16 2   
    34    17    20 ar  
    35    18    34 1   
    36    19    20 ar  
    37    19    35 1   
    38    20    36 1   
@<TRIPOS>SUBSTRUCTURE
     1 1GD         1 TEMP              0 ****  ****    0 ROOT
