@<TRIPOS>MOLECULE
1GD
   37    38     1     0     0
SMALL
No Charge or Current Charge


@<TRIPOS>ATOM
      1 C13          3.6040     1.6660    -0.8270 c3         1 1GD      -0.111100
      2 C15          4.0600    -0.8280    -1.0540 ca         1 1GD      -0.094500
      3 C17          6.2050    -1.7920    -0.4230 ca         1 1GD      -0.103000
      4 C20         -1.8950     1.5560     0.3930 ca         1 1GD      -0.125500
      5 C21         -3.1000     0.9520    -0.0060 ca         1 1GD      -0.005500
      6 N1          -4.5300    -1.5070    -1.9460 n8         1 1GD      -1.004100
      7 O3          -5.9080    -0.2350    -0.3490 o          1 1GD      -0.543500
      8 O4          -4.9290    -2.5410     0.2260 o          1 1GD      -0.543500
      9 C5          -3.2770    -0.4380     0.1480 ca         1 1GD      -0.274500
     10 C6          -2.2390    -1.2170     0.7010 ca         1 1GD      -0.005500
     11 C7          -1.0370    -0.6050     1.0970 ca         1 1GD      -0.125500
     12 C8          -0.8580     0.7830     0.9490 ca         1 1GD      -0.047300
     13 C9           0.4460     1.4380     1.3740 c3         1 1GD       0.136300
     14 N10          1.4380     1.3910     0.3010 ns         1 1GD      -0.511900
     15 C11          2.7340     1.8360     0.4230 c          1 1GD       0.601100
     16 O12          3.1570     2.3230     1.4630 o          1 1GD      -0.585100
     17 C14          4.5190     0.4530    -0.6890 ca         1 1GD      -0.081300
     18 C16          4.9010    -1.9470    -0.9220 ca         1 1GD      -0.109000
     19 C18          6.6680    -0.5170    -0.0560 ca         1 1GD      -0.109000
     20 C19          5.8270     0.6020    -0.1870 ca         1 1GD      -0.094500
     21 H1           2.9630     1.5290    -1.7060 hc         1 1GD       0.064200
     22 H2           4.2080     2.5710    -0.9590 hc         1 1GD       0.064200
     23 H3           3.0510    -0.9590    -1.4400 ha         1 1GD       0.111000
     24 H4           6.8550    -2.6580    -0.3210 ha         1 1GD       0.114000
     25 H5          -1.7680     2.6290     0.2670 ha         1 1GD       0.122000
     26 H6          -3.8900     1.5670    -0.4350 ha         1 1GD       0.137500
     27 H7          -3.5140    -1.4920    -1.9890 hn         1 1GD       0.472000
     28 H8          -4.7620    -2.4960    -2.0000 hn         1 1GD       0.472000
     29 H9          -2.3560    -2.2930     0.8280 ha         1 1GD       0.137500
     30 H10         -0.2410    -1.2140     1.5210 ha         1 1GD       0.122000
     31 H11          0.2660     2.4860     1.6500 h1         1 1GD       0.071700
     32 H12          0.8470     0.9230     2.2570 h1         1 1GD       0.071700
     33 H13          1.1670     0.9950    -0.5900 hn         1 1GD       0.313500
     34 H14          4.5410    -2.9330    -1.2060 ha         1 1GD       0.114000
     35 H15          7.6770    -0.3960     0.3320 ha         1 1GD       0.114000
     36 H16          6.1930     1.5840     0.1030 ha         1 1GD       0.111000
     37 S02         -4.8150    -1.2090    -0.3630 sy         1 1GD       1.126600
@<TRIPOS>BOND
     1     1    15 1   
     2     1    17 1   
     3     1    21 1   
     4     1    22 1   
     5     2    17 ar  
     6     2    18 ar  
     7     2    23 1   
     8     3    18 ar  
     9     3    19 ar  
    10     3    24 1   
    11     4     5 ar  
    12     4    12 ar  
    13     4    25 1   
    14     5     9 ar  
    15     5    26 1   
    16     6    27 1   
    17     6    28 1   
    18     6    37 1   
    19     7    37 2   
    20     8    37 2   
    21     9    10 ar  
    22     9    37 1   
    23    10    11 ar  
    24    10    29 1   
    25    11    12 ar  
    26    11    30 1   
    27    12    13 1   
    28    13    14 1   
    29    13    31 1   
    30    13    32 1   
    31    14    15 1   
    32    14    33 1   
    33    15    16 2   
    34    17    20 ar  
    35    18    34 1   
    36    19    20 ar  
    37    19    35 1   
    38    20    36 1   
@<TRIPOS>SUBSTRUCTURE
     1 1GD         1 TEMP              0 ****  ****    0 ROOT
