@<TRIPOS>MOLECULE
1GE
   64    69     1     0     0
SMALL
No Charge or Current Charge


@<TRIPOS>ATOM
      1 C1           4.7590     0.4810    -0.9220 ca         1 1GE      -0.219900
      2 C2           4.4220    -0.1090    -2.1600 ca         1 1GE      -0.049000
      3 C3           3.0820    -0.3810    -2.4720 ca         1 1GE      -0.216000
      4 C4           2.0620    -0.0780    -1.5630 ca         1 1GE       0.350000
      5 C5           2.3680     0.5040    -0.3120 ca         1 1GE      -0.149300
      6 C6           3.7210     0.7590    -0.0030 ca         1 1GE      -0.014000
      7 C10          6.1830     0.7410    -0.5450 ce         1 1GE       0.673800
      8 N11          6.5680     0.9220     0.6490 n2         1 1GE      -0.840100
      9 N12          7.0770     0.9050    -1.5400 nv         1 1GE      -1.075200
     10 N13          0.7530    -0.3940    -1.9130 nu         1 1GE      -0.949200
     11 C14         -0.3830    -0.3190    -0.9830 c6         1 1GE       0.286800
     12 C15         -0.1290     0.8350     0.0160 c5         1 1GE      -0.065700
     13 C16          1.2830     0.8270     0.7350 c5         1 1GE       0.040900
     14 C17         -0.2880     2.2910    -0.5760 c5         1 1GE      -0.031100
     15 C18          0.4680     3.0710     0.4660 ca         1 1GE      -0.070300
     16 C19          1.3220     2.2670     1.1970 ca         1 1GE      -0.085300
     17 C24          0.3590     4.4450     0.7320 ca         1 1GE      -0.097000
     18 C25          1.1340     5.0000     1.7690 ca         1 1GE      -0.114000
     19 C26          1.9960     4.1800     2.5260 ca         1 1GE      -0.122000
     20 C27          2.0920     2.8030     2.2430 ca         1 1GE      -0.094000
     21 C32         -0.6540    -1.6550    -0.2460 ca         1 1GE      -0.118300
     22 C34         -1.9780    -2.0240     0.1320 cp         1 1GE       0.016000
     23 C35         -2.1830    -3.2220     0.8520 ca         1 1GE      -0.116000
     24 C36         -1.1090    -4.0530     1.1930 ca         1 1GE       0.115100
     25 C37          0.2010    -3.6990     0.8300 ca         1 1GE       0.030100
     26 C38          0.4240    -2.5010     0.1170 ca         1 1GE      -0.149000
     27 C41         -3.1550    -1.1670    -0.1830 cp         1 1GE      -0.098000
     28 C42         -3.6680    -1.0830    -1.4960 ca         1 1GE      -0.130000
     29 C43         -4.7760    -0.2700    -1.7900 ca         1 1GE      -0.089500
     30 C44         -5.4100     0.4830    -0.7730 ca         1 1GE      -0.122600
     31 C45         -4.9010     0.3930     0.5450 ca         1 1GE      -0.089500
     32 C46         -3.7930    -0.4220     0.8330 ca         1 1GE      -0.130000
     33 C51         -6.6100     1.3640    -1.0880 c          1 1GE       0.710600
     34 O52         -7.1300     1.9940    -0.1770 o          1 1GE      -0.717500
     35 O53         -7.0150     1.4130    -2.2410 o          1 1GE      -0.717500
     36 O54          1.2340    -4.5460     1.2000 os         1 1GE      -0.374100
     37 C55          2.6110    -4.2640     0.8860 c3         1 1GE       0.157900
     38 O59         -1.3290    -5.2070     1.8880 oh         1 1GE      -0.538100
     39 H1           5.1920    -0.3770    -2.8800 ha         1 1GE       0.105000
     40 H2           2.8400    -0.8400    -3.4260 ha         1 1GE       0.108000
     41 H3           3.9690     1.1860     0.9650 ha         1 1GE       0.133000
     42 H4           7.5930     0.9040     0.6550 hn         1 1GE       0.359400
     43 H5           6.6670     1.0510    -2.4540 hn         1 1GE       0.452500
     44 H6           7.8790     1.4850    -1.3270 hn         1 1GE       0.452500
     45 H7           0.6300    -0.9010    -2.7870 hn         1 1GE       0.477000
     46 H8          -1.2840    -0.0680    -1.5610 h1         1 1GE       0.092700
     47 H9          -0.9050     0.7070     0.7790 hc         1 1GE       0.085700
     48 H10          1.3040     0.1160     1.5690 hc         1 1GE       0.073700
     49 H11          0.1760     2.3900    -1.5640 hc         1 1GE       0.067200
     50 H12         -1.3380     2.5900    -0.6650 hc         1 1GE       0.067200
     51 H13         -0.3150     5.0700     0.1510 ha         1 1GE       0.116000
     52 H14          1.0620     6.0630     1.9910 ha         1 1GE       0.104000
     53 H15          2.5880     4.6100     3.3300 ha         1 1GE       0.104000
     54 H16          2.7520     2.1660     2.8280 ha         1 1GE       0.112000
     55 H17         -3.1910    -3.5030     1.1460 ha         1 1GE       0.140000
     56 H18          1.4350    -2.2170    -0.1500 ha         1 1GE       0.117000
     57 H19         -3.1990    -1.6550    -2.2930 ha         1 1GE       0.090500
     58 H20         -5.1430    -0.2280    -2.8130 ha         1 1GE       0.130500
     59 H21         -5.3650     0.9570     1.3520 ha         1 1GE       0.130500
     60 H22         -3.4190    -0.4740     1.8520 ha         1 1GE       0.090500
     61 H24          2.9290    -3.3180     1.3410 h1         1 1GE       0.039367
     62 H25          3.2600    -5.0610     1.2700 h1         1 1GE       0.039367
     63 H26          2.7580    -4.2000    -0.2000 h1         1 1GE       0.039367
     64 H27         -0.4460    -5.6200     2.0180 ho         1 1GE       0.473000
@<TRIPOS>BOND
     1     1     2 ar  
     2     1     6 ar  
     3     1     7 1   
     4     2     3 ar  
     5     2    39 1   
     6     3     4 ar  
     7     3    40 1   
     8     4     5 ar  
     9     4    10 1   
    10     5     6 ar  
    11     5    13 1   
    12     6    41 1   
    13     7     8 2   
    14     7     9 1   
    15     8    42 1   
    16     9    43 1   
    17     9    44 1   
    18    10    11 1   
    19    10    45 1   
    20    11    12 1   
    21    11    21 1   
    22    11    46 1   
    23    12    13 1   
    24    12    14 1   
    25    12    47 1   
    26    13    16 1   
    27    13    48 1   
    28    14    15 1   
    29    14    49 1   
    30    14    50 1   
    31    15    16 ar  
    32    15    17 ar  
    33    16    20 ar  
    34    17    18 ar  
    35    17    51 1   
    36    18    19 ar  
    37    18    52 1   
    38    19    20 ar  
    39    19    53 1   
    40    20    54 1   
    41    21    22 ar  
    42    21    26 ar  
    43    22    23 ar  
    44    22    27 1   
    45    23    24 ar  
    46    23    55 1   
    47    24    25 ar  
    48    24    38 1   
    49    25    26 ar  
    50    25    36 1   
    51    26    56 1   
    52    27    28 ar  
    53    27    32 ar  
    54    28    29 ar  
    55    28    57 1   
    56    29    30 ar  
    57    29    58 1   
    58    30    31 ar  
    59    30    33 1   
    60    31    32 ar  
    61    31    59 1   
    62    32    60 1   
    63    33    34 1   
    64    33    35 1   
    65    36    37 1   
    66    37    61 1   
    67    37    62 1   
    68    37    63 1   
    69    38    64 1   
@<TRIPOS>SUBSTRUCTURE
     1 1GE         1 TEMP              0 ****  ****    0 ROOT
