@<TRIPOS>MOLECULE
1GE
   64    69     1     0     0
SMALL
bcc


@<TRIPOS>ATOM
      1 C1           4.6790     0.3740    -0.7240 ca         1 1GE      -0.219900
      2 C2           4.4050    -0.1740    -1.9790 ca         1 1GE      -0.067000
      3 C3           3.1050    -0.3970    -2.3810 ca         1 1GE      -0.234000
      4 C4           2.0240    -0.0730    -1.5490 ca         1 1GE       0.211600
      5 C5           2.2820     0.4910    -0.2870 ca         1 1GE      -0.149300
      6 C6           3.5980     0.6870     0.0960 ca         1 1GE      -0.032000
      7 C10          6.0600     0.6140    -0.2440 ce         1 1GE       0.673800
      8 N11          6.2810     0.6880     1.0150 n2         1 1GE      -0.840100
      9 N12          7.0160     0.6920    -1.2220 nv         1 1GE      -0.964800
     10 N13          0.7470    -0.2990    -1.9810 nu         1 1GE      -0.755600
     11 C14         -0.3760    -0.2940    -1.0790 c6         1 1GE       0.286800
     12 C15         -0.2160     0.8590    -0.0930 c5         1 1GE      -0.065700
     13 C16          1.1380     0.8610     0.6410 c5         1 1GE       0.040900
     14 C17         -0.3170     2.2590    -0.7170 c5         1 1GE      -0.031100
     15 C18          0.4220     3.1040     0.2810 ca         1 1GE      -0.070300
     16 C19          1.2310     2.3020     1.0850 ca         1 1GE      -0.085300
     17 C24          0.3680     4.4730     0.4840 ca         1 1GE      -0.115000
     18 C25          1.1250     5.0350     1.5080 ca         1 1GE      -0.132000
     19 C26          1.9180     4.2330     2.3210 ca         1 1GE      -0.140000
     20 C27          1.9740     2.8570     2.1130 ca         1 1GE      -0.112000
     21 C32         -0.5960    -1.6120    -0.3470 ca         1 1GE      -0.118300
     22 C34         -1.8580    -1.9570     0.1380 cp         1 1GE       0.016000
     23 C35         -2.0150    -3.1310     0.8760 ca         1 1GE      -0.134000
     24 C36         -0.9490    -3.9720     1.1320 ca         1 1GE       0.115100
     25 C37          0.3180    -3.6320     0.6360 ca         1 1GE       0.030100
     26 C38          0.4770    -2.4670    -0.0940 ca         1 1GE      -0.167000
     27 C41         -3.0570    -1.1130    -0.1040 cp         1 1GE      -0.098000
     28 C42         -3.6560    -1.0650    -1.3610 ca         1 1GE      -0.148000
     29 C43         -4.7850    -0.2900    -1.5790 ca         1 1GE      -0.107500
     30 C44         -5.3520     0.4580    -0.5490 ca         1 1GE      -0.122600
     31 C45         -4.7560     0.4020     0.7070 ca         1 1GE      -0.107500
     32 C46         -3.6250    -0.3720     0.9290 ca         1 1GE      -0.148000
     33 C51         -6.5930     1.3060    -0.7910 c          1 1GE       0.921200
     34 O52         -7.0450     1.9280     0.1900 o          1 1GE      -0.822800
     35 O53         -7.0530     1.3050    -1.9500 o          1 1GE      -0.822800
     36 O54          1.3040    -4.5070     0.9310 os         1 1GE      -0.350900
     37 C55          2.6250    -4.1910     0.5400 c3         1 1GE       0.134700
     38 O59         -1.1500    -5.0990     1.8450 oh         1 1GE      -0.499100
     39 H1           5.2070    -0.4590    -2.6480 ha         1 1GE       0.123000
     40 H2           2.9110    -0.8400    -3.3510 ha         1 1GE       0.126000
     41 H3           3.8090     1.1100     1.0710 ha         1 1GE       0.151000
     42 H4           7.2570     0.8990     1.2030 hn         1 1GE       0.359400
     43 H5           6.7410     1.0460    -2.1230 hn         1 1GE       0.397300
     44 H6           7.9320     1.0040    -0.9380 hn         1 1GE       0.397300
     45 H7           0.6470    -0.8620    -2.8100 hn         1 1GE       0.421800
     46 H8          -1.2610    -0.0890    -1.6840 h1         1 1GE       0.092700
     47 H9          -1.0030     0.7730     0.6600 hc         1 1GE       0.085700
     48 H10          1.1310     0.1720     1.4920 hc         1 1GE       0.073700
     49 H11          0.1710     2.2920    -1.6970 hc         1 1GE       0.067200
     50 H12         -1.3520     2.5710    -0.8650 hc         1 1GE       0.067200
     51 H13         -0.2650     5.1000    -0.1330 ha         1 1GE       0.134000
     52 H14          1.0850     6.1030     1.6840 ha         1 1GE       0.122000
     53 H15          2.4870     4.6800     3.1270 ha         1 1GE       0.122000
     54 H16          2.5810     2.2360     2.7600 ha         1 1GE       0.130000
     55 H17         -2.9960    -3.4030     1.2480 ha         1 1GE       0.158000
     56 H18          1.4580    -2.2080    -0.4670 ha         1 1GE       0.135000
     57 H19         -3.2380    -1.6470    -2.1740 ha         1 1GE       0.108500
     58 H20         -5.2360    -0.2670    -2.5620 ha         1 1GE       0.148500
     59 H21         -5.1800     0.9750     1.5220 ha         1 1GE       0.148500
     60 H22         -3.1770    -0.3980     1.9150 ha         1 1GE       0.108500
     61 H24          2.9640    -3.2500     0.9810 h1         1 1GE       0.039367
     62 H25          3.2580    -4.9970     0.9020 h1         1 1GE       0.039367
     63 H26          2.7230    -4.1290    -0.5470 h1         1 1GE       0.039367
     64 H27         -0.3190    -5.5760     1.9530 ho         1 1GE       0.434000
@<TRIPOS>BOND
     1     1     2 ar  
     2     1     6 ar  
     3     1     7 1   
     4     2     3 ar  
     5     2    39 1   
     6     3     4 ar  
     7     3    40 1   
     8     4     5 ar  
     9     4    10 1   
    10     5     6 ar  
    11     5    13 1   
    12     6    41 1   
    13     7     8 2   
    14     7     9 1   
    15     8    42 1   
    16     9    43 1   
    17     9    44 1   
    18    10    11 1   
    19    10    45 1   
    20    11    12 1   
    21    11    21 1   
    22    11    46 1   
    23    12    13 1   
    24    12    14 1   
    25    12    47 1   
    26    13    16 1   
    27    13    48 1   
    28    14    15 1   
    29    14    49 1   
    30    14    50 1   
    31    15    16 ar  
    32    15    17 ar  
    33    16    20 ar  
    34    17    18 ar  
    35    17    51 1   
    36    18    19 ar  
    37    18    52 1   
    38    19    20 ar  
    39    19    53 1   
    40    20    54 1   
    41    21    22 ar  
    42    21    26 ar  
    43    22    23 ar  
    44    22    27 1   
    45    23    24 ar  
    46    23    55 1   
    47    24    25 ar  
    48    24    38 1   
    49    25    26 ar  
    50    25    36 1   
    51    26    56 1   
    52    27    28 ar  
    53    27    32 ar  
    54    28    29 ar  
    55    28    57 1   
    56    29    30 ar  
    57    29    58 1   
    58    30    31 ar  
    59    30    33 1   
    60    31    32 ar  
    61    31    59 1   
    62    32    60 1   
    63    33    34 1   
    64    33    35 1   
    65    36    37 1   
    66    37    61 1   
    67    37    62 1   
    68    37    63 1   
    69    38    64 1   
@<TRIPOS>SUBSTRUCTURE
     1 1GE         1 TEMP              0 ****  ****    0 ROOT
