@<TRIPOS>MOLECULE
1GG
   64    67     1     0     0
SMALL
No Charge or Current Charge


@<TRIPOS>ATOM
      1 C1          10.2300    34.4550    28.6890 ca         1 1GG      -0.143900
      2 C2           9.3220    35.5030    28.9750 ca         1 1GG      -0.078000
      3 C3           8.8330    36.3310    27.9500 ca         1 1GG      -0.109000
      4 C4           9.2280    36.1260    26.6160 ca         1 1GG      -0.102300
      5 Cl4         -0.0850    37.6640    24.4670 cl         1 1GG      -0.162000
      6 C5          10.1100    35.0720    26.3170 ca         1 1GG      -0.109000
      7 C6          10.6000    34.2420    27.3400 ca         1 1GG      -0.078000
      8 C11         10.7350    33.5410    29.7670 ce         1 1GG       0.663800
      9 N12         11.2480    32.4040    29.5370 n2         1 1GG      -0.832100
     10 N13         10.7470    33.9980    31.0380 nv         1 1GG      -1.087200
     11 C14          8.6920    37.0230    25.5100 c3         1 1GG       0.147300
     12 N15          7.3490    36.6120    25.1020 ns         1 1GG      -0.494900
     13 C18          6.1830    37.2140    25.5290 c          1 1GG       0.598100
     14 O19          6.1640    38.1880    26.2710 o          1 1GG      -0.584100
     15 C20          4.9620    36.4690    24.9070 c5         1 1GG       0.021700
     16 C21          4.6340    37.1250    23.5260 c5         1 1GG      -0.081400
     17 C22          3.0600    37.1850    23.4480 c5         1 1GG       0.014200
     18 C23          2.5870    37.0630    24.8920 cc         1 1GG      -0.027600
     19 N24          3.6830    36.6620    25.6230 n          1 1GG      -0.241000
     20 C28          2.5070    36.0100    22.5730 c3         1 1GG      -0.066400
     21 C29          2.6250    38.5150    22.7390 c3         1 1GG      -0.066400
     22 C30          2.8040    34.5770    23.0730 c3         1 1GG      -0.091600
     23 C36          2.8270    39.8210    23.5480 c3         1 1GG      -0.091600
     24 C42          1.2990    37.2210    25.4140 cd         1 1GG       0.282600
     25 N43          1.0680    36.9880    26.7750 nd         1 1GG      -0.632300
     26 C44          2.1270    36.5670    27.4730 cc         1 1GG       0.616200
     27 C45          3.5390    36.3230    26.9710 c          1 1GG       0.423700
     28 O46          4.4680    35.8740    27.6460 o          1 1GG      -0.583000
     29 N48          1.8940    36.2990    28.8100 nu         1 1GG      -0.872400
     30 C49          0.6770    36.5520    29.5640 cy         1 1GG       0.229500
     31 C50          0.7260    36.2390    31.0970 cy         1 1GG      -0.104400
     32 C51          1.2250    37.7110    31.2880 cy         1 1GG      -0.094400
     33 C52          0.4030    38.0320    29.9950 cy         1 1GG      -0.104400
     34 H2           8.9760    35.6770    29.9920 ha         1 1GG       0.127000
     35 H3           8.1360    37.1310    28.1930 ha         1 1GG       0.127500
     36 H5          10.4170    34.8910    25.2890 ha         1 1GG       0.127500
     37 H6          11.2790    33.4320    27.0810 ha         1 1GG       0.127000
     38 HN12        11.3140    31.9010    30.4280 hn         1 1GG       0.368400
     39 HN13        11.4520    33.5930    31.6420 hn         1 1GG       0.465500
     40 HN1A        10.6250    34.9990    31.1370 hn         1 1GG       0.465500
     41 H14          8.6780    38.0660    25.8530 h1         1 1GG       0.067700
     42 H14A         9.3550    36.9740    24.6360 h1         1 1GG       0.067700
     43 HN15         7.2590    35.8100    24.4890 hn         1 1GG       0.317500
     44 H20          5.1870    35.3980    24.8140 h1         1 1GG       0.073700
     45 H21          5.0750    38.1260    23.4710 hc         1 1GG       0.067700
     46 H21A         5.0820    36.5700    22.6940 hc         1 1GG       0.067700
     47 H28          1.4180    36.1010    22.4800 hc         1 1GG       0.047700
     48 H29          3.1750    38.6160    21.7950 hc         1 1GG       0.047700
     49 H30          2.3310    33.8420    22.4110 hc         1 1GG       0.038700
     50 H30A         3.8810    34.3730    23.0800 hc         1 1GG       0.038700
     51 H36          2.4960    40.6830    22.9570 hc         1 1GG       0.038700
     52 H36A         2.2410    39.8080    24.4740 hc         1 1GG       0.038700
     53 H49         -0.1630    36.0710    29.0440 h1         1 1GG       0.082700
     54 H50         -0.2550    36.0330    31.5420 hc         1 1GG       0.060200
     55 H50A         1.4190    35.4500    31.4080 hc         1 1GG       0.060200
     56 H51          0.8960    38.2150    32.2040 hc         1 1GG       0.051700
     57 H51A         2.3090    37.8450    31.1860 hc         1 1GG       0.051700
     58 H52          0.8170    38.8070    29.3420 hc         1 1GG       0.060200
     59 H52A        -0.6550    38.2570    30.1740 hc         1 1GG       0.060200
     60 H27          2.8970    36.0970    21.5510 hc         1 1GG       0.047700
     61 H281         1.5720    38.4700    22.4430 hc         1 1GG       0.047700
     62 H291         2.4110    34.4200    24.0840 hc         1 1GG       0.038700
     63 H301         3.8780    39.9820    23.8100 hc         1 1GG       0.038700
     64 H31          2.7280    35.9750    29.3000 hn         1 1GG       0.518000
@<TRIPOS>BOND
     1     1     2 ar  
     2     1     7 ar  
     3     1     8 1   
     4     2     3 ar  
     5     2    34 1   
     6     3     4 ar  
     7     3    35 1   
     8     4     6 ar  
     9     4    11 1   
    10     5    24 1   
    11     6     7 ar  
    12     6    36 1   
    13     7    37 1   
    14     8     9 2   
    15     8    10 1   
    16     9    38 1   
    17    10    39 1   
    18    10    40 1   
    19    11    12 1   
    20    11    41 1   
    21    11    42 1   
    22    12    13 1   
    23    12    43 1   
    24    13    14 2   
    25    13    15 1   
    26    15    16 1   
    27    15    19 1   
    28    15    44 1   
    29    16    17 1   
    30    16    45 1   
    31    16    46 1   
    32    17    18 1   
    33    17    20 1   
    34    17    21 1   
    35    18    19 1   
    36    18    24 2   
    37    19    27 1   
    38    20    22 1   
    39    20    47 1   
    40    20    60 1   
    41    21    23 1   
    42    21    48 1   
    43    21    61 1   
    44    22    49 1   
    45    22    50 1   
    46    22    62 1   
    47    23    51 1   
    48    23    52 1   
    49    23    63 1   
    50    24    25 1   
    51    25    26 2   
    52    26    27 1   
    53    26    29 1   
    54    27    28 2   
    55    29    30 1   
    56    29    64 1   
    57    30    31 1   
    58    30    33 1   
    59    30    53 1   
    60    31    32 1   
    61    31    54 1   
    62    31    55 1   
    63    32    33 1   
    64    32    56 1   
    65    32    57 1   
    66    33    58 1   
    67    33    59 1   
@<TRIPOS>SUBSTRUCTURE
     1 1GG         1 TEMP              0 ****  ****    0 ROOT
