@<TRIPOS>MOLECULE
1GG
   64    67     1     0     0
SMALL
abcg2


@<TRIPOS>ATOM
      1 C1           9.8950    34.7250    28.9890 ca         1 1GG      -0.143900
      2 C2           8.5290    34.8920    28.7530 ca         1 1GG      -0.078000
      3 C3           8.0720    35.4280    27.5540 ca         1 1GG      -0.109000
      4 C4           8.9720    35.8150    26.5640 ca         1 1GG      -0.102300
      5 CL4          0.0980    38.2020    24.8850 cl         1 1GG      -0.162000
      6 C5          10.3380    35.6450    26.7970 ca         1 1GG      -0.109000
      7 C6          10.7940    35.1090    27.9900 ca         1 1GG      -0.078000
      8 C11         10.4120    34.1400    30.2600 ce         1 1GG       0.663800
      9 N12         11.5620    33.5620    30.2680 n2         1 1GG      -0.832100
     10 N13          9.5720    34.2290    31.3390 nv         1 1GG      -1.087200
     11 C14          8.5110    36.4430    25.2660 c3         1 1GG       0.147300
     12 N15          7.1720    36.0590    24.8650 ns         1 1GG      -0.494900
     13 C18          6.0900    36.8260    25.0760 c          1 1GG       0.598100
     14 O19          6.1200    37.9350    25.6020 o          1 1GG      -0.584100
     15 C20          4.7880    36.2510    24.5140 c5         1 1GG       0.021700
     16 C21          4.3930    36.9410    23.1970 c5         1 1GG      -0.081400
     17 C22          2.8860    37.3150    23.2940 c5         1 1GG       0.014200
     18 C23          2.6040    37.1690    24.7740 cc         1 1GG      -0.027600
     19 N24          3.6670    36.5420    25.4070 n          1 1GG      -0.241000
     20 C28          2.0140    36.3240    22.4870 c3         1 1GG      -0.066400
     21 C29          2.6510    38.7390    22.7450 c3         1 1GG      -0.066400
     22 C30          2.1380    34.8580    22.8950 c3         1 1GG      -0.091600
     23 C36          3.2350    39.8710    23.5850 c3         1 1GG      -0.091600
     24 C42          1.5280    37.4380    25.5520 cd         1 1GG       0.282600
     25 N43          1.4520    37.1470    26.8680 nd         1 1GG      -0.632300
     26 C44          2.4570    36.5270    27.4400 cc         1 1GG       0.616200
     27 C45          3.6810    36.1530    26.7070 c          1 1GG       0.423700
     28 O46          4.6280    35.5470    27.2230 o          1 1GG      -0.583000
     29 N48          2.4300    36.1750    28.7350 nu         1 1GG      -0.872400
     30 C49          1.3370    36.4970    29.6260 cy         1 1GG       0.229500
     31 C50          1.6070    36.0100    31.0690 cy         1 1GG      -0.104400
     32 C51          1.9940    37.4560    31.4710 cy         1 1GG      -0.094400
     33 C52          1.3480    37.9620    30.1550 cy         1 1GG      -0.104400
     34 H2           7.8050    34.5810    29.4940 ha         1 1GG       0.127000
     35 H3           7.0080    35.5370    27.3940 ha         1 1GG       0.127500
     36 H5          11.0500    35.9360    26.0330 ha         1 1GG       0.127500
     37 H6          11.8540    34.9810    28.1600 ha         1 1GG       0.127000
     38 HN12        11.7970    33.2400    31.2060 hn         1 1GG       0.368400
     39 HN13         9.9440    33.9700    32.2410 hn         1 1GG       0.465500
     40 HN1A         8.8770    34.9580    31.3600 hn         1 1GG       0.465500
     41 H14          8.5220    37.5290    25.3610 h1         1 1GG       0.067700
     42 H14A         9.2040    36.1780    24.4660 h1         1 1GG       0.067700
     43 HN15         7.0400    35.1300    24.4950 hn         1 1GG       0.317500
     44 H20          4.8700    35.1690    24.4040 h1         1 1GG       0.073700
     45 H21          4.9900    37.8420    23.0700 hc         1 1GG       0.067700
     46 H21A         4.5860    36.2920    22.3470 hc         1 1GG       0.067700
     47 H28          0.9720    36.6380    22.5780 hc         1 1GG       0.047700
     48 H29          3.0820    38.7620    21.7400 hc         1 1GG       0.047700
     49 H30          1.4780    34.2400    22.2830 hc         1 1GG       0.038700
     50 H30A         3.1540    34.4830    22.7600 hc         1 1GG       0.038700
     51 H36          3.0610    40.8310    23.0960 hc         1 1GG       0.038700
     52 H36A         2.7710    39.9090    24.5730 hc         1 1GG       0.038700
     53 H49          0.4030    36.1740    29.1670 h1         1 1GG       0.082700
     54 H50          0.6900    35.6720    31.5490 hc         1 1GG       0.060200
     55 H50A         2.3670    35.2350    31.1780 hc         1 1GG       0.060200
     56 H51          1.5750    37.8340    32.4030 hc         1 1GG       0.051700
     57 H51A         3.0730    37.6050    31.4860 hc         1 1GG       0.051700
     58 H52          1.9140    38.6770    29.5600 hc         1 1GG       0.060200
     59 H52A         0.3360    38.3370    30.3020 hc         1 1GG       0.060200
     60 H27          2.2860    36.4390    21.4340 hc         1 1GG       0.047700
     61 H281         1.5790    38.8960    22.6230 hc         1 1GG       0.047700
     62 H291         1.8570    34.7090    23.9390 hc         1 1GG       0.038700
     63 H301         4.3110    39.7630    23.7280 hc         1 1GG       0.038700
     64 H31          3.2680    35.7430    29.0950 hn         1 1GG       0.518000
@<TRIPOS>BOND
     1     1     2 ar  
     2     1     7 ar  
     3     1     8 1   
     4     2     3 ar  
     5     2    34 1   
     6     3     4 ar  
     7     3    35 1   
     8     4     6 ar  
     9     4    11 1   
    10     5    24 1   
    11     6     7 ar  
    12     6    36 1   
    13     7    37 1   
    14     8     9 2   
    15     8    10 1   
    16     9    38 1   
    17    10    39 1   
    18    10    40 1   
    19    11    12 1   
    20    11    41 1   
    21    11    42 1   
    22    12    13 1   
    23    12    43 1   
    24    13    14 2   
    25    13    15 1   
    26    15    16 1   
    27    15    19 1   
    28    15    44 1   
    29    16    17 1   
    30    16    45 1   
    31    16    46 1   
    32    17    18 1   
    33    17    20 1   
    34    17    21 1   
    35    18    19 1   
    36    18    24 2   
    37    19    27 1   
    38    20    22 1   
    39    20    47 1   
    40    20    60 1   
    41    21    23 1   
    42    21    48 1   
    43    21    61 1   
    44    22    49 1   
    45    22    50 1   
    46    22    62 1   
    47    23    51 1   
    48    23    52 1   
    49    23    63 1   
    50    24    25 1   
    51    25    26 2   
    52    26    27 1   
    53    26    29 1   
    54    27    28 2   
    55    29    30 1   
    56    29    64 1   
    57    30    31 1   
    58    30    33 1   
    59    30    53 1   
    60    31    32 1   
    61    31    54 1   
    62    31    55 1   
    63    32    33 1   
    64    32    56 1   
    65    32    57 1   
    66    33    58 1   
    67    33    59 1   
@<TRIPOS>SUBSTRUCTURE
     1 1GG         1 TEMP              0 ****  ****    0 ROOT
