@<TRIPOS>MOLECULE
1GH
   52    56     1     0     0
SMALL
abcg2


@<TRIPOS>ATOM
      1 O2          -4.8310    -2.1180     0.5800 o          1 1GH      -0.557000
      2 C13         -3.6440    -2.1680     0.3280 c          1 1GH       0.600000
      3 N1          -2.6580    -1.2550     0.6770 n          1 1GH      -0.266000
      4 C6          -2.8840    -0.0380     1.4350 c3         1 1GH       0.087400
      5 C8          -3.1220     1.1400     0.5120 ca         1 1GH       0.324300
      6 N2          -3.5320     0.8830    -0.7200 nb         1 1GH      -0.649000
      7 C12         -3.7610     1.9070    -1.5360 ca         1 1GH       0.346900
      8 C11         -3.5880     3.2310    -1.1670 ca         1 1GH      -0.160000
      9 C10         -3.1540     3.4970     0.1240 ca         1 1GH      -0.072000
     10 C9          -2.9170     2.4360     0.9810 ca         1 1GH      -0.167000
     11 C7          -3.9820    -0.1360     2.4950 c3         1 1GH      -0.093100
     12 N3          -2.9970    -3.1590    -0.3560 ns         1 1GH      -0.486600
     13 C14         -1.6700    -2.8580    -0.5000 ca         1 1GH      -0.063400
     14 C5          -1.4540    -1.6390     0.1190 ca         1 1GH       0.030600
     15 C15         -0.6340    -3.5590    -1.1170 ca         1 1GH       0.357900
     16 N4           0.5800    -3.0740    -1.1440 nb         1 1GH      -0.652000
     17 C16          0.8160    -1.8610    -0.5960 ca         1 1GH       0.231000
     18 C4          -0.1690    -1.0560     0.0470 ca         1 1GH      -0.007000
     19 C3           0.2010     0.2340     0.5000 ca         1 1GH      -0.210000
     20 C17          2.1380    -1.3660    -0.6850 ca         1 1GH      -0.040000
     21 C18          2.4940    -0.1310    -0.2200 ca         1 1GH      -0.019000
     22 C2           1.4860     0.6920     0.3590 ca         1 1GH       0.161100
     23 O1           1.8930     1.9180     0.7170 os         1 1GH      -0.330100
     24 C1           0.9460     2.8250     1.2480 c3         1 1GH       0.143900
     25 C19          3.8680     0.3590    -0.3540 cc         1 1GH      -0.172000
     26 C22          4.5880     0.5120    -1.4950 cd         1 1GH       0.204300
     27 C23          4.2660     0.3030    -2.9240 c3         1 1GH      -0.139400
     28 O3           5.8130     0.9410    -1.1860 os         1 1GH      -0.074700
     29 N5           5.9320     1.0720     0.1690 nd         1 1GH      -0.371300
     30 C20          4.7840     0.7330     0.6750 cc         1 1GH       0.306300
     31 C21          4.5620     0.7300     2.1440 c3         1 1GH      -0.132400
     32 H3          -3.4680    -3.9670    -0.7330 hn         1 1GH       0.471000
     33 H6          -1.9660     0.1320     1.9980 h1         1 1GH       0.062700
     34 H71C        -4.9820    -0.1380     2.0740 hc         1 1GH       0.056033
     35 H72C        -3.8530    -1.0250     3.1120 hc         1 1GH       0.056033
     36 H73C        -3.8880     0.7320     3.1470 hc         1 1GH       0.056033
     37 H9          -2.5780     2.6090     1.9940 ha         1 1GH       0.120000
     38 H12         -4.0960     1.6580    -2.5370 h4         1 1GH       0.024100
     39 H11         -3.7840     4.0270    -1.8720 ha         1 1GH       0.127000
     40 H10         -2.9980     4.5150     0.4580 ha         1 1GH       0.120000
     41 H15         -0.8140    -4.5220    -1.5820 h4         1 1GH       0.027100
     42 H17          2.8820    -2.0060    -1.1440 ha         1 1GH       0.137000
     43 HA          -0.5420     0.8870     0.9250 ha         1 1GH       0.120000
     44 H11C         0.1530     3.0430     0.5280 h1         1 1GH       0.042700
     45 H12C         0.4970     2.4520     2.1720 h1         1 1GH       0.042700
     46 H13C         1.4860     3.7420     1.4640 h1         1 1GH       0.042700
     47 H231         4.5260     1.1780    -3.5200 hc         1 1GH       0.064367
     48 H232         4.8100    -0.5510    -3.3300 hc         1 1GH       0.064367
     49 H233         3.2020     0.1110    -3.0430 hc         1 1GH       0.064367
     50 H211         4.1710    -0.2340     2.4680 hc         1 1GH       0.056700
     51 H212         5.4890     0.9250     2.6790 hc         1 1GH       0.056700
     52 H213         3.8340     1.4890     2.4280 hc         1 1GH       0.056700
@<TRIPOS>BOND
     1     1     2 2   
     2     2     3 1   
     3     2    12 1   
     4     3     4 1   
     5     3    14 1   
     6     4     5 1   
     7     4    11 1   
     8     4    33 1   
     9     5     6 ar  
    10     5    10 ar  
    11     6     7 ar  
    12     7     8 ar  
    13     7    38 1   
    14     8     9 ar  
    15     8    39 1   
    16     9    10 ar  
    17     9    40 1   
    18    10    37 1   
    19    11    34 1   
    20    11    35 1   
    21    11    36 1   
    22    12    13 1   
    23    12    32 1   
    24    13    14 ar  
    25    13    15 ar  
    26    14    18 ar  
    27    15    16 ar  
    28    15    41 1   
    29    16    17 ar  
    30    17    18 ar  
    31    17    20 ar  
    32    18    19 ar  
    33    19    22 ar  
    34    19    43 1   
    35    20    21 ar  
    36    20    42 1   
    37    21    22 ar  
    38    21    25 1   
    39    22    23 1   
    40    23    24 1   
    41    24    44 1   
    42    24    45 1   
    43    24    46 1   
    44    25    26 2   
    45    25    30 1   
    46    26    27 1   
    47    26    28 1   
    48    27    47 1   
    49    27    48 1   
    50    27    49 1   
    51    28    29 1   
    52    29    30 2   
    53    30    31 1   
    54    31    50 1   
    55    31    51 1   
    56    31    52 1   
@<TRIPOS>SUBSTRUCTURE
     1 1GH         1 TEMP              0 ****  ****    0 ROOT
