@<TRIPOS>MOLECULE
1GH
   52    56     1     0     0
SMALL
No Charge or Current Charge


@<TRIPOS>ATOM
      1 O2          -4.8870    -2.1030     0.0080 o          1 1GH      -0.557000
      2 C13         -3.6720    -2.1670    -0.0790 c          1 1GH       0.600000
      3 N1          -2.6810    -1.2520     0.3500 n          1 1GH      -0.266000
      4 C6          -2.9500    -0.1460     1.3200 c3         1 1GH       0.087400
      5 C8          -3.1960     1.2260     0.6700 ca         1 1GH       0.324300
      6 N2          -3.7950     1.2590    -0.5480 nb         1 1GH      -0.649000
      7 C12         -4.0050     2.4640    -1.1270 ca         1 1GH       0.346900
      8 C11         -3.6340     3.6760    -0.5230 ca         1 1GH      -0.160000
      9 C10         -3.0200     3.6510     0.7390 ca         1 1GH      -0.072000
     10 C9          -2.8010     2.4020     1.3410 ca         1 1GH      -0.167000
     11 C7          -4.0420    -0.4560     2.3740 c3         1 1GH      -0.093100
     12 N3          -2.9580    -3.1980    -0.6080 ns         1 1GH      -0.486600
     13 C14         -1.5710    -2.9960    -0.5740 ca         1 1GH      -0.063400
     14 C5          -1.3630    -1.7740     0.0440 ca         1 1GH       0.030600
     15 C15         -0.5120    -3.7510    -1.0950 ca         1 1GH       0.357900
     16 N4           0.7540    -3.2700    -1.0650 nb         1 1GH      -0.652000
     17 C16          0.9710    -2.0130    -0.5810 ca         1 1GH       0.231000
     18 C4          -0.0720    -1.1920    -0.0530 ca         1 1GH      -0.007000
     19 C3           0.2160     0.1350     0.3280 ca         1 1GH      -0.210000
     20 C17          2.2740    -1.4920    -0.6350 ca         1 1GH      -0.040000
     21 C18          2.5810    -0.1820    -0.2130 ca         1 1GH      -0.019000
     22 C2           1.5300     0.6450     0.2480 ca         1 1GH       0.161100
     23 O1           1.8010     1.9700     0.5360 os         1 1GH      -0.330100
     24 C1           0.7920     2.9040     0.9620 c3         1 1GH       0.143900
     25 C19          3.9790     0.2850    -0.2840 cc         1 1GH      -0.172000
     26 C22          4.7390     0.1400    -1.4090 cd         1 1GH       0.204300
     27 C23          4.4540    -0.4990    -2.7430 c3         1 1GH      -0.139400
     28 O3           5.9270     0.8040    -1.2540 os         1 1GH      -0.074700
     29 N5           5.9270     1.4560     0.0260 nd         1 1GH      -0.371300
     30 C20          4.7510     1.1400     0.5420 cc         1 1GH       0.306300
     31 C21          4.3540     1.5750     1.9270 c3         1 1GH      -0.132400
     32 H3          -3.4130    -4.0110    -1.0140 hn         1 1GH       0.471000
     33 H6          -2.0360    -0.0550     1.9180 h1         1 1GH       0.062700
     34 H71C        -5.0450    -0.4170     1.9350 hc         1 1GH       0.056033
     35 H72C        -3.8870    -1.4480     2.8150 hc         1 1GH       0.056033
     36 H73C        -4.0080     0.2820     3.1830 hc         1 1GH       0.056033
     37 H9          -2.3310     2.3430     2.3190 ha         1 1GH       0.120000
     38 H12         -4.4860     2.4560    -2.1050 h4         1 1GH       0.024100
     39 H11         -3.8250     4.6180    -1.0300 ha         1 1GH       0.127000
     40 H10         -2.7230     4.5730     1.2360 ha         1 1GH       0.120000
     41 H15         -0.6710    -4.7220    -1.5630 h4         1 1GH       0.027100
     42 H17          3.0670    -2.1380    -0.9980 ha         1 1GH       0.137000
     43 HA          -0.5800     0.7800     0.6590 ha         1 1GH       0.120000
     44 H11C         0.0120     3.0120     0.1980 h1         1 1GH       0.042700
     45 H12C         0.3280     2.5750     1.9000 h1         1 1GH       0.042700
     46 H13C         1.2380     3.8910     1.1330 h1         1 1GH       0.042700
     47 H231         5.0650    -0.0470    -3.5330 hc         1 1GH       0.064367
     48 H232         4.6790    -1.5720    -2.7210 hc         1 1GH       0.064367
     49 H233         3.4030    -0.3740    -3.0280 hc         1 1GH       0.064367
     50 H211         3.5680     0.9320     2.3380 hc         1 1GH       0.056700
     51 H212         5.2110     1.5240     2.6090 hc         1 1GH       0.056700
     52 H213         3.9910     2.6090     1.9220 hc         1 1GH       0.056700
@<TRIPOS>BOND
     1     1     2 2   
     2     2     3 1   
     3     2    12 1   
     4     3     4 1   
     5     3    14 1   
     6     4     5 1   
     7     4    11 1   
     8     4    33 1   
     9     5     6 ar  
    10     5    10 ar  
    11     6     7 ar  
    12     7     8 ar  
    13     7    38 1   
    14     8     9 ar  
    15     8    39 1   
    16     9    10 ar  
    17     9    40 1   
    18    10    37 1   
    19    11    34 1   
    20    11    35 1   
    21    11    36 1   
    22    12    13 1   
    23    12    32 1   
    24    13    14 ar  
    25    13    15 ar  
    26    14    18 ar  
    27    15    16 ar  
    28    15    41 1   
    29    16    17 ar  
    30    17    18 ar  
    31    17    20 ar  
    32    18    19 ar  
    33    19    22 ar  
    34    19    43 1   
    35    20    21 ar  
    36    20    42 1   
    37    21    22 ar  
    38    21    25 1   
    39    22    23 1   
    40    23    24 1   
    41    24    44 1   
    42    24    45 1   
    43    24    46 1   
    44    25    26 2   
    45    25    30 1   
    46    26    27 1   
    47    26    28 1   
    48    27    47 1   
    49    27    48 1   
    50    27    49 1   
    51    28    29 1   
    52    29    30 2   
    53    30    31 1   
    54    31    50 1   
    55    31    51 1   
    56    31    52 1   
@<TRIPOS>SUBSTRUCTURE
     1 1GH         1 TEMP              0 ****  ****    0 ROOT
