@<TRIPOS>MOLECULE
1GJ
   43    46     1     0     0
SMALL
abcg2


@<TRIPOS>ATOM
      1 O01          5.7020    -1.9720     0.0870 oh         1 1GJ      -0.527100
      2 C02          4.3990    -1.6510     0.1140 ca         1 1GJ       0.192100
      3 C03          3.6770    -2.0100     1.2540 ca         1 1GJ      -0.192000
      4 C04          2.3340    -1.7040     1.3180 ca         1 1GJ      -0.014000
      5 C05          1.6820    -1.0370     0.2820 ca         1 1GJ      -0.191800
      6 C06          0.2590    -0.7030     0.3730 cc         1 1GJ      -0.035300
      7 C07         -0.8640    -1.2820    -0.2220 ca         1 1GJ      -0.149000
      8 C08         -1.0730    -2.3760    -1.0810 ca         1 1GJ      -0.014000
      9 C09         -2.3560    -2.6620    -1.4540 ca         1 1GJ      -0.154000
     10 C10         -3.4480    -1.8850    -0.9960 ca         1 1GJ      -0.023000
     11 C11         -3.2720    -0.8180    -0.1550 ca         1 1GJ      -0.182300
     12 C12         -4.3970     0.0180     0.3330 c3         1 1GJ       0.367300
     13 F13         -5.5930    -0.4170    -0.0880 f          1 1GJ      -0.114000
     14 F14         -4.4560     0.0540     1.6760 f          1 1GJ      -0.114000
     15 F15         -4.2940     1.2960    -0.0680 f          1 1GJ      -0.114000
     16 C16         -1.9510    -0.5050     0.2510 ca         1 1GJ      -0.044000
     17 N17         -1.5390     0.4650     1.0650 nc         1 1GJ      -0.269400
     18 N18         -0.2220     0.3110     1.1140 na         1 1GJ       0.165500
     19 C19          0.5850     1.2860     1.8290 c3         1 1GJ       0.119900
     20 C20          1.3300     2.1720     0.8650 ca         1 1GJ      -0.131300
     21 C21          0.6230     2.9850    -0.0170 ca         1 1GJ      -0.089500
     22 C22          1.2970     3.7780    -0.9310 ca         1 1GJ      -0.110500
     23 C23          2.6850     3.7660    -0.9710 ca         1 1GJ      -0.092000
     24 C24          3.3930     2.9600    -0.0950 ca         1 1GJ      -0.110500
     25 C25          2.7170     2.1630     0.8190 ca         1 1GJ      -0.089500
     26 C26          2.4200    -0.6750    -0.8510 ca         1 1GJ       0.221100
     27 O27          1.8820    -0.0180    -1.8870 oh         1 1GJ      -0.524100
     28 C28          3.7730    -0.9870    -0.9320 ca         1 1GJ      -0.261000
     29 H1           6.1150    -1.6760    -0.7290 ho         1 1GJ       0.471000
     30 H2           4.1650    -2.5290     2.0660 ha         1 1GJ       0.136000
     31 H3           1.7700    -2.0010     2.1920 ha         1 1GJ       0.122000
     32 H4          -0.2460    -2.9800    -1.4310 ha         1 1GJ       0.125000
     33 H5          -2.5590    -3.5020    -2.1020 ha         1 1GJ       0.120000
     34 H6          -4.4380    -2.1630    -1.3290 ha         1 1GJ       0.128000
     35 H7          -0.1040     1.8550     2.4510 h1         1 1GJ       0.083700
     36 H8           1.2760     0.7600     2.4870 h1         1 1GJ       0.083700
     37 H9          -0.4610     2.9960     0.0130 ha         1 1GJ       0.123000
     38 H10          0.7390     4.4070    -1.6110 ha         1 1GJ       0.117500
     39 H11          3.2130     4.3830    -1.6870 ha         1 1GJ       0.116000
     40 H12          4.4740     2.9400    -0.1260 ha         1 1GJ       0.117500
     41 H13          3.2760     1.5170     1.4850 ha         1 1GJ       0.123000
     42 H14          0.9760     0.2450    -1.6930 ho         1 1GJ       0.483000
     43 H15          4.3220    -0.6880    -1.8170 ha         1 1GJ       0.133000
@<TRIPOS>BOND
     1     1     2 1   
     2     1    29 1   
     3     2     3 ar  
     4     2    28 ar  
     5     3     4 ar  
     6     3    30 1   
     7     4     5 ar  
     8     4    31 1   
     9     5     6 1   
    10     5    26 ar  
    11     6     7 2   
    12     6    18 1   
    13     7     8 ar  
    14     7    16 ar  
    15     8     9 ar  
    16     8    32 1   
    17     9    10 ar  
    18     9    33 1   
    19    10    11 ar  
    20    10    34 1   
    21    11    12 1   
    22    11    16 ar  
    23    12    13 1   
    24    12    14 1   
    25    12    15 1   
    26    16    17 2   
    27    17    18 1   
    28    18    19 1   
    29    19    20 1   
    30    19    35 1   
    31    19    36 1   
    32    20    21 ar  
    33    20    25 ar  
    34    21    22 ar  
    35    21    37 1   
    36    22    23 ar  
    37    22    38 1   
    38    23    24 ar  
    39    23    39 1   
    40    24    25 ar  
    41    24    40 1   
    42    25    41 1   
    43    26    27 1   
    44    26    28 ar  
    45    27    42 1   
    46    28    43 1   
@<TRIPOS>SUBSTRUCTURE
     1 1GJ         1 TEMP              0 ****  ****    0 ROOT
