@<TRIPOS>MOLECULE
1GJ
   43    46     1     0     0
SMALL
No Charge or Current Charge


@<TRIPOS>ATOM
      1 O01          5.6440    -1.7640    -0.3800 oh         1 1GJ      -0.527100
      2 C02          4.3220    -1.4970    -0.1990 ca         1 1GJ       0.192100
      3 C03          3.7780    -1.5230     1.0910 ca         1 1GJ      -0.192000
      4 C04          2.4150    -1.2460     1.2880 ca         1 1GJ      -0.014000
      5 C05          1.5880    -0.9450     0.1870 ca         1 1GJ      -0.191800
      6 C06          0.1760    -0.6290     0.4040 cc         1 1GJ      -0.035300
      7 C07         -0.9450    -1.2710    -0.1840 ca         1 1GJ      -0.149000
      8 C08         -1.0320    -2.4050    -0.9990 ca         1 1GJ      -0.014000
      9 C09         -2.3140    -2.8040    -1.4180 ca         1 1GJ      -0.154000
     10 C10         -3.4560    -2.0770    -1.0140 ca         1 1GJ      -0.023000
     11 C11         -3.3380    -0.9380    -0.1740 ca         1 1GJ      -0.182300
     12 C12         -4.5750    -0.1470     0.2790 c3         1 1GJ       0.367300
     13 F13         -5.7310    -0.6470    -0.2160 f          1 1GJ      -0.114000
     14 F14         -4.7030    -0.1460     1.6260 f          1 1GJ      -0.114000
     15 F15         -4.5160     1.1450    -0.1160 f          1 1GJ      -0.114000
     16 C16         -2.0430    -0.5540     0.2360 ca         1 1GJ      -0.044000
     17 N17         -1.7080     0.5230     1.0690 nc         1 1GJ      -0.269400
     18 N18         -0.3140     0.4360     1.1500 na         1 1GJ       0.165500
     19 C19          0.4620     1.4350     1.9040 c3         1 1GJ       0.119900
     20 C20          1.4040     2.2560     1.0250 ca         1 1GJ      -0.131300
     21 C21          0.9000     2.9850    -0.0710 ca         1 1GJ      -0.089500
     22 C22          1.7710     3.7210    -0.8930 ca         1 1GJ      -0.110500
     23 C23          3.1500     3.7340    -0.6250 ca         1 1GJ      -0.092000
     24 C24          3.6580     3.0100     0.4670 ca         1 1GJ      -0.110500
     25 C25          2.7880     2.2740     1.2910 ca         1 1GJ      -0.089500
     26 C26          2.1500    -0.9200    -1.1050 ca         1 1GJ       0.221100
     27 O27          1.3800    -0.6010    -2.1790 oh         1 1GJ      -0.524100
     28 C28          3.5090    -1.1960    -1.2990 ca         1 1GJ      -0.261000
     29 H1           5.8400    -1.7000    -1.3380 ho         1 1GJ       0.471000
     30 H2           4.4120    -1.7570     1.9420 ha         1 1GJ       0.136000
     31 H3           2.0000    -1.2740     2.2930 ha         1 1GJ       0.122000
     32 H4          -0.1450    -2.9620    -1.2940 ha         1 1GJ       0.125000
     33 H5          -2.4260    -3.6780    -2.0550 ha         1 1GJ       0.120000
     34 H6          -4.4330    -2.4130    -1.3560 ha         1 1GJ       0.128000
     35 H7          -0.2370     2.1120     2.4100 h1         1 1GJ       0.083700
     36 H8           1.0290     0.9120     2.6830 h1         1 1GJ       0.083700
     37 H9          -0.1660     2.9790    -0.2900 ha         1 1GJ       0.123000
     38 H10          1.3770     4.2800    -1.7390 ha         1 1GJ       0.117500
     39 H11          3.8240     4.3020    -1.2620 ha         1 1GJ       0.116000
     40 H12          4.7260     3.0170     0.6740 ha         1 1GJ       0.117500
     41 H13          3.1950     1.7120     2.1290 ha         1 1GJ       0.123000
     42 H14          0.4730    -0.4540    -1.8380 ho         1 1GJ       0.483000
     43 H15          3.9220    -1.1670    -2.3030 ha         1 1GJ       0.133000
@<TRIPOS>BOND
     1     1     2 1   
     2     1    29 1   
     3     2     3 ar  
     4     2    28 ar  
     5     3     4 ar  
     6     3    30 1   
     7     4     5 ar  
     8     4    31 1   
     9     5     6 1   
    10     5    26 ar  
    11     6     7 2   
    12     6    18 1   
    13     7     8 ar  
    14     7    16 ar  
    15     8     9 ar  
    16     8    32 1   
    17     9    10 ar  
    18     9    33 1   
    19    10    11 ar  
    20    10    34 1   
    21    11    12 1   
    22    11    16 ar  
    23    12    13 1   
    24    12    14 1   
    25    12    15 1   
    26    16    17 2   
    27    17    18 1   
    28    18    19 1   
    29    19    20 1   
    30    19    35 1   
    31    19    36 1   
    32    20    21 ar  
    33    20    25 ar  
    34    21    22 ar  
    35    21    37 1   
    36    22    23 ar  
    37    22    38 1   
    38    23    24 ar  
    39    23    39 1   
    40    24    25 ar  
    41    24    40 1   
    42    25    41 1   
    43    26    27 1   
    44    26    28 ar  
    45    27    42 1   
    46    28    43 1   
@<TRIPOS>SUBSTRUCTURE
     1 1GJ         1 TEMP              0 ****  ****    0 ROOT
