@<TRIPOS>MOLECULE
1GK
   39    41     1     0     0
SMALL
No Charge or Current Charge


@<TRIPOS>ATOM
      1 C1          40.2350    28.6610    33.3310 c3         1 1GK      -0.052800
      2 C2          39.8710    29.4860    32.1000 ca         1 1GK      -0.029300
      3 C3          38.5460    29.4390    31.6230 ca         1 1GK      -0.121000
      4 C4          38.1560    30.1980    30.5090 ca         1 1GK      -0.092000
      5 C5          39.0920    31.0110    29.8560 ca         1 1GK      -0.124000
      6 C6          40.4160    31.0660    30.3190 ca         1 1GK      -0.086000
      7 C7          40.8220    30.3160    31.4470 ca         1 1GK      -0.157600
      8 C8          42.2660    30.3780    31.9020 c          1 1GK       0.620300
      9 O9          42.9120    29.3570    32.1100 o          1 1GK      -0.534100
     10 C10         42.8940    31.7260    31.9860 cc         1 1GK      -0.261600
     11 C11         42.2450    32.9370    31.9640 cd         1 1GK      -0.110000
     12 N12         43.2340    33.9160    32.1240 na         1 1GK      -0.067000
     13 C13         44.4920    33.3090    32.2720 cd         1 1GK      -0.264600
     14 C14         44.2700    31.9560    32.1960 cc         1 1GK      -0.069000
     15 C15         45.7910    33.9970    32.4780 c          1 1GK       0.640700
     16 O16         45.8980    35.2140    32.5390 o          1 1GK      -0.627100
     17 N17         46.8670    33.1500    32.5960 ns         1 1GK      -0.491900
     18 C18         48.2570    33.5870    32.7770 c3         1 1GK       0.084700
     19 C19         48.9490    33.8880    31.4750 cc         1 1GK       0.089300
     20 C20         48.9220    35.0020    30.6820 cd         1 1GK      -0.144000
     21 C21         49.7500    34.7370    29.5720 cd         1 1GK      -0.188000
     22 C22         50.2480    33.4720    29.7320 cc         1 1GK       0.133900
     23 O23         49.7610    32.9330    30.9030 os         1 1GK      -0.261000
     24 H1          40.8090    29.2530    34.0540 hc         1 1GK       0.050367
     25 H1A         39.3420    28.2960    33.8530 hc         1 1GK       0.050367
     26 H1B         40.8340    27.7850    33.0560 hc         1 1GK       0.050367
     27 H3          37.8090    28.8110    32.1200 ha         1 1GK       0.114000
     28 H4          37.1290    30.1520    30.1500 ha         1 1GK       0.114000
     29 H5          38.7950    31.5930    28.9870 ha         1 1GK       0.115000
     30 H6          41.1350    31.6840    29.7840 ha         1 1GK       0.117000
     31 H11         41.1920    33.1810    31.8640 h4         1 1GK       0.162000
     32 H14         45.0110    31.1630    32.2790 ha         1 1GK       0.146000
     33 HN17        46.6740    32.1610    32.5240 hn         1 1GK       0.326500
     34 H18         48.2780    34.4820    33.4130 h1         1 1GK       0.074700
     35 H18A        48.8080    32.7960    33.3020 h1         1 1GK       0.074700
     36 H20         48.3630    35.9120    30.8770 ha         1 1GK       0.148000
     37 H21         49.9590    35.4040    28.7420 ha         1 1GK       0.143000
     38 H22         50.9140    32.8690    29.1290 h4         1 1GK       0.051100
     39 HN12        43.0660    34.9190    32.1440 hn         1 1GK       0.373000
@<TRIPOS>BOND
     1     1     2 1   
     2     1    24 1   
     3     1    25 1   
     4     1    26 1   
     5     2     3 ar  
     6     2     7 ar  
     7     3     4 ar  
     8     3    27 1   
     9     4     5 ar  
    10     4    28 1   
    11     5     6 ar  
    12     5    29 1   
    13     6     7 ar  
    14     6    30 1   
    15     7     8 1   
    16     8     9 2   
    17     8    10 1   
    18    10    11 2   
    19    10    14 1   
    20    11    12 1   
    21    11    31 1   
    22    12    13 1   
    23    12    39 1   
    24    13    14 2   
    25    13    15 1   
    26    14    32 1   
    27    15    16 2   
    28    15    17 1   
    29    17    18 1   
    30    17    33 1   
    31    18    19 1   
    32    18    34 1   
    33    18    35 1   
    34    19    20 2   
    35    19    23 1   
    36    20    21 1   
    37    20    36 1   
    38    21    22 2   
    39    21    37 1   
    40    22    23 1   
    41    22    38 1   
@<TRIPOS>SUBSTRUCTURE
     1 1GK         1 TEMP              0 ****  ****    0 ROOT
