@<TRIPOS>MOLECULE
1GK
   39    41     1     0     0
SMALL
abcg2


@<TRIPOS>ATOM
      1 C1          40.0500    28.9350    33.4830 c3         1 1GK      -0.052800
      2 C2          39.7730    29.6140    32.1670 ca         1 1GK      -0.029300
      3 C3          38.4690    29.6590    31.6730 ca         1 1GK      -0.121000
      4 C4          38.1690    30.2720    30.4610 ca         1 1GK      -0.092000
      5 C5          39.1790    30.8720    29.7190 ca         1 1GK      -0.124000
      6 C6          40.4790    30.8630    30.2060 ca         1 1GK      -0.086000
      7 C7          40.7860    30.2340    31.4150 ca         1 1GK      -0.157600
      8 C8          42.2140    30.1900    31.8660 c          1 1GK       0.620300
      9 O9          42.7440    29.1170    32.1460 o          1 1GK      -0.534100
     10 C10         42.9470    31.4470    31.9580 cc         1 1GK      -0.261600
     11 C11         42.4230    32.7390    31.8800 cd         1 1GK      -0.110000
     12 N12         43.4340    33.6060    32.0650 na         1 1GK      -0.067000
     13 C13         44.6210    32.9300    32.2600 cd         1 1GK      -0.264600
     14 C14         44.3440    31.5830    32.2040 cc         1 1GK      -0.069000
     15 C15         45.8470    33.7150    32.4760 c          1 1GK       0.640700
     16 O16         45.8000    34.9490    32.5260 o          1 1GK      -0.627100
     17 N17         46.9910    33.0160    32.6250 ns         1 1GK      -0.491900
     18 C18         48.2880    33.6660    32.7790 c3         1 1GK       0.084700
     19 C19         48.9010    34.0930    31.4910 cc         1 1GK       0.089300
     20 C20         49.1290    35.3040    30.9230 cd         1 1GK      -0.144000
     21 C21         49.7440    35.0560    29.6520 cd         1 1GK      -0.188000
     22 C22         49.8440    33.7090    29.5360 cc         1 1GK       0.133900
     23 O23         49.3370    33.1030    30.6500 os         1 1GK      -0.261000
     24 H1          40.7050    29.5360    34.1150 hc         1 1GK       0.050367
     25 H1A         39.1190    28.7580    34.0200 hc         1 1GK       0.050367
     26 H1B         40.5460    27.9750    33.3320 hc         1 1GK       0.050367
     27 H3          37.6750    29.2060    32.2540 ha         1 1GK       0.114000
     28 H4          37.1480    30.2820    30.1010 ha         1 1GK       0.114000
     29 H5          38.9570    31.3500    28.7730 ha         1 1GK       0.115000
     30 H6          41.2710    31.3320    29.6370 ha         1 1GK       0.117000
     31 H11         41.4130    33.0760    31.7250 h4         1 1GK       0.162000
     32 H14         45.0430    30.7720    32.3200 ha         1 1GK       0.146000
     33 HN17        46.9770    32.0170    32.5000 hn         1 1GK       0.326500
     34 H18         48.1660    34.5450    33.4090 h1         1 1GK       0.074700
     35 H18A        48.9420    32.9640    33.2970 h1         1 1GK       0.074700
     36 H20         48.8820    36.2600    31.3550 ha         1 1GK       0.148000
     37 H21         50.0660    35.7860    28.9270 ha         1 1GK       0.143000
     38 H22         50.2290    33.0540    28.7740 h4         1 1GK       0.051100
     39 HN12        43.3620    34.6130    32.0690 hn         1 1GK       0.373000
@<TRIPOS>BOND
     1     1     2 1   
     2     1    24 1   
     3     1    25 1   
     4     1    26 1   
     5     2     3 ar  
     6     2     7 ar  
     7     3     4 ar  
     8     3    27 1   
     9     4     5 ar  
    10     4    28 1   
    11     5     6 ar  
    12     5    29 1   
    13     6     7 ar  
    14     6    30 1   
    15     7     8 1   
    16     8     9 2   
    17     8    10 1   
    18    10    11 2   
    19    10    14 1   
    20    11    12 1   
    21    11    31 1   
    22    12    13 1   
    23    12    39 1   
    24    13    14 2   
    25    13    15 1   
    26    14    32 1   
    27    15    16 2   
    28    15    17 1   
    29    17    18 1   
    30    17    33 1   
    31    18    19 1   
    32    18    34 1   
    33    18    35 1   
    34    19    20 2   
    35    19    23 1   
    36    20    21 1   
    37    20    36 1   
    38    21    22 2   
    39    21    37 1   
    40    22    23 1   
    41    22    38 1   
@<TRIPOS>SUBSTRUCTURE
     1 1GK         1 TEMP              0 ****  ****    0 ROOT
