@<TRIPOS>MOLECULE
1GM
   36    38     1     0     0
SMALL
abcg2


@<TRIPOS>ATOM
      1 C01         21.9040    15.1690     4.6340 c3         1 1GM      -0.112100
      2 C02         20.5940    15.4100     5.3740 c3         1 1GM       0.075600
      3 N01         19.9470    14.1500     5.7380 na         1 1GM       0.150500
      4 N02         20.2610    13.5810     6.9190 nc         1 1GM      -0.265400
      5 C03         19.6250    12.3980     6.9050 ca         1 1GM      -0.036000
      6 C04         19.5920    11.3790     7.8920 ca         1 1GM      -0.175300
      7 C05         20.3720    11.5280     9.1580 c3         1 1GM       0.355300
      8 F01         21.7000    11.6850     8.9250 f          1 1GM      -0.112667
      9 F02         19.9910    12.6120     9.8800 f          1 1GM      -0.112667
     10 F03         20.2510    10.4620     9.9760 f          1 1GM      -0.112667
     11 C06         18.8430    10.2550     7.6390 ca         1 1GM      -0.025000
     12 C07         18.1100    10.0980     6.4350 ca         1 1GM      -0.151000
     13 C08         18.1260    11.0660     5.4610 ca         1 1GM      -0.019000
     14 C09         18.8950    12.2240     5.6890 ca         1 1GM      -0.161000
     15 C10         19.1370    13.3990     4.9560 cc         1 1GM      -0.029300
     16 C11         18.6660    13.7850     3.6220 ca         1 1GM      -0.180800
     17 C12         17.8000    14.8650     3.4300 ca         1 1GM      -0.013000
     18 C13         17.3280    15.2070     2.1750 ca         1 1GM      -0.240000
     19 C14         17.7210    14.4470     1.0710 ca         1 1GM       0.183100
     20 O01         17.2880    14.7190    -0.1900 oh         1 1GM      -0.529100
     21 C15         18.5820    13.3670     1.2290 ca         1 1GM      -0.185000
     22 C16         19.0520    13.0410     2.4950 ca         1 1GM       0.200100
     23 O02         19.9050    11.9840     2.5780 oh         1 1GM      -0.532100
     24 H1          22.3690    16.1260     4.3960 hc         1 1GM       0.054033
     25 H2          22.5930    14.5910     5.2510 hc         1 1GM       0.054033
     26 H3          21.7280    14.6280     3.7030 hc         1 1GM       0.054033
     27 H4          20.7560    15.9510     6.3030 h1         1 1GM       0.074200
     28 H5          19.8990    15.9780     4.7600 h1         1 1GM       0.074200
     29 H6          18.8080     9.4640     8.3740 ha         1 1GM       0.129000
     30 H7          17.5330     9.1950     6.2930 ha         1 1GM       0.122000
     31 H8          17.5680    10.9450     4.5420 ha         1 1GM       0.126000
     32 H9          17.4840    15.4400     4.2920 ha         1 1GM       0.120000
     33 H10         16.6530    16.0450     2.0460 ha         1 1GM       0.122000
     34 H11         16.7020    15.4880    -0.1810 ho         1 1GM       0.468000
     35 H12         18.8920    12.7860     0.3710 ha         1 1GM       0.151000
     36 H13         20.1960    11.8590     3.4930 ho         1 1GM       0.480000
@<TRIPOS>BOND
     1     1     2 1   
     2     1    24 1   
     3     1    25 1   
     4     1    26 1   
     5     2     3 1   
     6     2    27 1   
     7     2    28 1   
     8     3     4 1   
     9     3    15 1   
    10     4     5 2   
    11     5     6 ar  
    12     5    14 ar  
    13     6     7 1   
    14     6    11 ar  
    15     7     8 1   
    16     7     9 1   
    17     7    10 1   
    18    11    12 ar  
    19    11    29 1   
    20    12    13 ar  
    21    12    30 1   
    22    13    14 ar  
    23    13    31 1   
    24    14    15 2   
    25    15    16 1   
    26    16    17 ar  
    27    16    22 ar  
    28    17    18 ar  
    29    17    32 1   
    30    18    19 ar  
    31    18    33 1   
    32    19    20 1   
    33    19    21 ar  
    34    20    34 1   
    35    21    22 ar  
    36    21    35 1   
    37    22    23 1   
    38    23    36 1   
@<TRIPOS>SUBSTRUCTURE
     1 1GM         1 TEMP              0 ****  ****    0 ROOT
