@<TRIPOS>MOLECULE
1GM
   36    38     1     0     0
SMALL
No Charge or Current Charge


@<TRIPOS>ATOM
      1 C01         21.7210    15.4210     4.4060 c3         1 1GM      -0.112100
      2 C02         20.6050    15.5030     5.4680 c3         1 1GM       0.075600
      3 N01         20.0170    14.1930     5.7950 na         1 1GM       0.150500
      4 N02         20.3270    13.5600     7.0030 nc         1 1GM      -0.265400
      5 C03         19.6300    12.3460     6.9130 ca         1 1GM      -0.036000
      6 C04         19.5860    11.3200     7.8820 ca         1 1GM      -0.175300
      7 C05         20.3610    11.4480     9.2020 c3         1 1GM       0.355300
      8 F01         21.6900    11.5930     8.9910 f          1 1GM      -0.112667
      9 F02         19.9540    12.5200     9.9200 f          1 1GM      -0.112667
     10 F03         20.2160    10.3700    10.0070 f          1 1GM      -0.112667
     11 C06         18.7990    10.1740     7.5970 ca         1 1GM      -0.025000
     12 C07         18.0790    10.0690     6.3850 ca         1 1GM      -0.151000
     13 C08         18.1370    11.1020     5.4330 ca         1 1GM      -0.019000
     14 C09         18.9340    12.2120     5.7340 ca         1 1GM      -0.161000
     15 C10         19.1900    13.4030     5.0030 cc         1 1GM      -0.029300
     16 C11         18.7180    13.7240     3.6560 ca         1 1GM      -0.180800
     17 C12         17.9570    14.8900     3.4390 ca         1 1GM      -0.013000
     18 C13         17.5070    15.2110     2.1460 ca         1 1GM      -0.240000
     19 C14         17.8160    14.3720     1.0670 ca         1 1GM       0.183100
     20 O01         17.3820    14.6820    -0.1850 oh         1 1GM      -0.529100
     21 C15         18.5720    13.2130     1.2740 ca         1 1GM      -0.185000
     22 C16         19.0210    12.8890     2.5610 ca         1 1GM       0.200100
     23 O02         19.7780    11.7720     2.7390 oh         1 1GM      -0.532100
     24 H1          22.1360    16.4170     4.2130 hc         1 1GM       0.054033
     25 H2          22.5330    14.7690     4.7490 hc         1 1GM       0.054033
     26 H3          21.3310    15.0230     3.4610 hc         1 1GM       0.054033
     27 H4          21.0140    15.9410     6.3860 h1         1 1GM       0.074200
     28 H5          19.8090    16.1670     5.1130 h1         1 1GM       0.074200
     29 H6          18.7310     9.3570     8.3120 ha         1 1GM       0.129000
     30 H7          17.4750     9.1860     6.1890 ha         1 1GM       0.122000
     31 H8          17.5780    11.0380     4.5010 ha         1 1GM       0.126000
     32 H9          17.7020    15.5400     4.2730 ha         1 1GM       0.120000
     33 H10         16.9170    16.1120     1.9950 ha         1 1GM       0.122000
     34 H11         16.8740    15.5190    -0.1340 ho         1 1GM       0.468000
     35 H12         18.8160    12.5670     0.4360 ha         1 1GM       0.151000
     36 H13         19.9600    11.7040     3.7010 ho         1 1GM       0.480000
@<TRIPOS>BOND
     1     1     2 1   
     2     1    24 1   
     3     1    25 1   
     4     1    26 1   
     5     2     3 1   
     6     2    27 1   
     7     2    28 1   
     8     3     4 1   
     9     3    15 1   
    10     4     5 2   
    11     5     6 ar  
    12     5    14 ar  
    13     6     7 1   
    14     6    11 ar  
    15     7     8 1   
    16     7     9 1   
    17     7    10 1   
    18    11    12 ar  
    19    11    29 1   
    20    12    13 ar  
    21    12    30 1   
    22    13    14 ar  
    23    13    31 1   
    24    14    15 2   
    25    15    16 1   
    26    16    17 ar  
    27    16    22 ar  
    28    17    18 ar  
    29    17    32 1   
    30    18    19 ar  
    31    18    33 1   
    32    19    20 1   
    33    19    21 ar  
    34    20    34 1   
    35    21    22 ar  
    36    21    35 1   
    37    22    23 1   
    38    23    36 1   
@<TRIPOS>SUBSTRUCTURE
     1 1GM         1 TEMP              0 ****  ****    0 ROOT
