@<TRIPOS>MOLECULE
1GN
   25    25     1     0     0
SMALL
No Charge or Current Charge


@<TRIPOS>ATOM
      1 C2         -19.8300   -21.0680    -7.1660 c6         1 1GN       0.142500
      2 C3         -20.3510   -19.6800    -6.6420 c6         1 1GN       0.189300
      3 C4         -19.1520   -18.7430    -6.2920 c6         1 1GN       0.100300
      4 O5         -17.7650   -19.9580    -7.9480 os         1 1GN      -0.456000
      5 C1         -18.8310   -20.8200    -8.3540 c6         1 1GN       0.358300
      6 O1         -18.2060   -22.0220    -8.7680 oh         1 1GN      -0.638000
      7 N2         -20.9420   -22.0250    -7.5320 n8         1 1GN      -0.974200
      8 O3         -21.1810   -19.8290    -5.4780 oh         1 1GN      -0.611000
      9 O4         -18.4650   -19.2640    -5.1270 oh         1 1GN      -0.686000
     10 C5         -18.2200   -18.6400    -7.5470 c6         1 1GN       0.153300
     11 C6         -16.9740   -17.7200    -7.3230 c3         1 1GN       0.168600
     12 O6         -16.1490   -17.5870    -8.4980 oh         1 1GN      -0.707000
     13 H2         -19.2440   -21.5360    -6.3590 h1         1 1GN       0.115700
     14 H3         -20.9340   -19.2070    -7.4460 h1         1 1GN       0.019700
     15 H4         -19.5490   -17.7410    -6.0720 h1         1 1GN       0.029700
     16 H1         -19.3590   -20.3670    -9.2060 h2         1 1GN       0.003700
     17 HO1        -17.2890   -21.7440    -8.9710 ho         1 1GN       0.459000
     18 HN21       -20.5230   -22.7920    -8.0720 hn         1 1GN       0.397000
     19 HN22       -21.5630   -21.5690    -8.2090 hn         1 1GN       0.397000
     20 HO3        -20.5410   -19.8780    -4.7340 ho         1 1GN       0.435000
     21 HO4        -17.8720   -18.5550    -4.7860 ho         1 1GN       0.499000
     22 H5         -18.7980   -18.2060    -8.3760 h1         1 1GN       0.044700
     23 H61        -17.3330   -16.7310    -7.0060 h1         1 1GN       0.027200
     24 H62        -16.3790   -18.1320    -6.4970 h1         1 1GN       0.027200
     25 HO6        -15.3600   -17.0560    -8.2370 ho         1 1GN       0.506000
@<TRIPOS>BOND
     1     1     2 1   
     2     1     5 1   
     3     1     7 1   
     4     1    13 1   
     5     2     3 1   
     6     2     8 1   
     7     2    14 1   
     8     3     9 1   
     9     3    10 1   
    10     3    15 1   
    11     4     5 1   
    12     4    10 1   
    13     5     6 1   
    14     5    16 1   
    15     6    17 1   
    16     7    18 1   
    17     7    19 1   
    18     8    20 1   
    19     9    21 1   
    20    10    11 1   
    21    10    22 1   
    22    11    12 1   
    23    11    23 1   
    24    11    24 1   
    25    12    25 1   
@<TRIPOS>SUBSTRUCTURE
     1 1GN         1 TEMP              0 ****  ****    0 ROOT
