@<TRIPOS>MOLECULE
1GN
   25    25     1     0     0
SMALL
abcg2


@<TRIPOS>ATOM
      1 C2         -19.7090   -21.0760    -7.1430 c6         1 1GN       0.142500
      2 C3         -20.2090   -19.7470    -6.5790 c6         1 1GN       0.189300
      3 C4         -19.0370   -18.8180    -6.2470 c6         1 1GN       0.100300
      4 O5         -17.7120   -19.9260    -7.9320 os         1 1GN      -0.456000
      5 C1         -18.7620   -20.7820    -8.3130 c6         1 1GN       0.358300
      6 O1         -18.2100   -21.9750    -8.7390 oh         1 1GN      -0.638000
      7 N2         -20.8270   -21.9200    -7.5160 n8         1 1GN      -0.974200
      8 O3         -21.0270   -19.9980    -5.4670 oh         1 1GN      -0.611000
      9 O4         -18.3280   -19.3610    -5.1570 oh         1 1GN      -0.686000
     10 C5         -18.1620   -18.6640    -7.4920 c6         1 1GN       0.153300
     11 C6         -16.9550   -17.7860    -7.2400 c3         1 1GN       0.168600
     12 O6         -16.2850   -17.5630    -8.4570 oh         1 1GN      -0.707000
     13 H2         -19.1320   -21.5960    -6.3690 h1         1 1GN       0.115700
     14 H3         -20.7820   -19.2480    -7.3800 h1         1 1GN       0.019700
     15 H4         -19.4460   -17.8270    -5.9970 h1         1 1GN       0.029700
     16 H1         -19.3470   -20.2980    -9.1180 h2         1 1GN       0.003700
     17 HO1        -17.8850   -21.8770    -9.6390 ho         1 1GN       0.459000
     18 HN21       -20.4800   -22.7870    -7.9070 hn         1 1GN       0.397000
     19 HN22       -21.3650   -21.4760    -8.2530 hn         1 1GN       0.397000
     20 HO3        -21.3870   -19.1590    -5.1630 ho         1 1GN       0.435000
     21 HO4        -17.8700   -18.6520    -4.6980 ho         1 1GN       0.499000
     22 H5         -18.7800   -18.1850    -8.2710 h1         1 1GN       0.044700
     23 H61        -17.3100   -16.8480    -6.7930 h1         1 1GN       0.027200
     24 H62        -16.3000   -18.2680    -6.5030 h1         1 1GN       0.027200
     25 HO6        -15.5040   -17.0330    -8.2740 ho         1 1GN       0.506000
@<TRIPOS>BOND
     1     1     2 1   
     2     1     5 1   
     3     1     7 1   
     4     1    13 1   
     5     2     3 1   
     6     2     8 1   
     7     2    14 1   
     8     3     9 1   
     9     3    10 1   
    10     3    15 1   
    11     4     5 1   
    12     4    10 1   
    13     5     6 1   
    14     5    16 1   
    15     6    17 1   
    16     7    18 1   
    17     7    19 1   
    18     8    20 1   
    19     9    21 1   
    20    10    11 1   
    21    10    22 1   
    22    11    12 1   
    23    11    23 1   
    24    11    24 1   
    25    12    25 1   
@<TRIPOS>SUBSTRUCTURE
     1 1GN         1 TEMP              0 ****  ****    0 ROOT
