@<TRIPOS>MOLECULE
1GO
   26    27     1     0     0
SMALL
abcg2


@<TRIPOS>ATOM
      1 C10         -1.7920     0.1740     0.2210 c          1 1GO       0.601100
      2 C13         -4.2830     0.4250     0.2790 cc         1 1GO      -0.220300
      3 C15         -6.2680    -0.4840     1.0710 cd         1 1GO      -0.133000
      4 N01          4.9790    -0.3390    -1.6740 n8         1 1GO      -1.049100
      5 O03          5.1530    -1.3610     0.6570 o          1 1GO      -0.525500
      6 O04          5.1330     1.1460     0.3150 o          1 1GO      -0.525500
      7 C05          2.9490    -0.1740     0.0240 cc         1 1GO       0.174300
      8 N06          2.2420    -1.2280     0.2000 nd         1 1GO      -0.183000
      9 N07          0.9230    -0.9840     0.2300 nd         1 1GO      -0.353000
     10 C08          0.6530     0.2790     0.0740 cc         1 1GO       0.559300
     11 N09         -0.5890     0.8390     0.0700 ns         1 1GO      -0.489400
     12 O11         -1.8800    -1.0180     0.3490 o          1 1GO      -0.477100
     13 C12         -2.9740     1.1270     0.2160 c3         1 1GO      -0.082100
     14 C14         -5.0960     0.2670     1.3600 cd         1 1GO      -0.109000
     15 C16         -6.3230    -0.8850    -0.2280 cc         1 1GO      -0.229000
     16 S17         -4.9520    -0.3500    -1.1060 ss         1 1GO       0.221000
     17 S18          2.0530     1.2840    -0.1240 ss         1 1GO      -0.194800
     18 H1          -7.0330    -0.7140     1.7980 ha         1 1GO       0.137000
     19 H2           5.1310    -1.2890    -1.9930 hn         1 1GO       0.496500
     20 H3           5.6590     0.3160    -2.0420 hn         1 1GO       0.496500
     21 H4          -0.6380     1.8410    -0.0510 hn         1 1GO       0.330500
     22 H5          -2.8780     1.7910     1.0800 hc         1 1GO       0.071200
     23 H6          -2.9040     1.7730    -0.6650 hc         1 1GO       0.071200
     24 H7          -4.8640     0.6750     2.3340 ha         1 1GO       0.133000
     25 H8          -7.0940    -1.4590    -0.7170 h4         1 1GO       0.152000
     26 S02          4.7190    -0.1890    -0.0710 sy         1 1GO       1.127200
@<TRIPOS>BOND
     1     1    11 1   
     2     1    12 2   
     3     1    13 1   
     4     2    13 1   
     5     2    14 2   
     6     2    16 1   
     7     3    14 1   
     8     3    15 2   
     9     3    18 1   
    10     4    19 1   
    11     4    20 1   
    12     4    26 1   
    13     5    26 2   
    14     6    26 2   
    15     7     8 2   
    16     7    17 1   
    17     7    26 1   
    18     8     9 1   
    19     9    10 2   
    20    10    11 1   
    21    10    17 1   
    22    11    21 1   
    23    13    22 1   
    24    13    23 1   
    25    14    24 1   
    26    15    16 1   
    27    15    25 1   
@<TRIPOS>SUBSTRUCTURE
     1 1GO         1 TEMP              0 ****  ****    0 ROOT
