@<TRIPOS>MOLECULE
1GO
   26    27     1     0     0
SMALL
No Charge or Current Charge


@<TRIPOS>ATOM
      1 C10         -1.7120     0.4610     1.5060 c          1 1GO       0.601100
      2 C13         -4.0960     0.5170     0.5940 cc         1 1GO      -0.220300
      3 C15         -6.0510    -0.6370     0.0390 cd         1 1GO      -0.133000
      4 N01          4.3580    -1.1100    -2.1350 n8         1 1GO      -1.049100
      5 O03          5.3870    -0.9570     0.0700 o          1 1GO      -0.525500
      6 O04          4.9180     1.1230    -1.3430 o          1 1GO      -0.525500
      7 C05          2.8220    -0.0680    -0.0950 cc         1 1GO       0.174300
      8 N06          2.3660    -0.8970     0.8370 nd         1 1GO      -0.183000
      9 N07          1.0580    -0.6120     1.1900 nd         1 1GO      -0.353000
     10 C08          0.5660     0.4150     0.5140 cc         1 1GO       0.559300
     11 N09         -0.7110     0.9060     0.6690 ns         1 1GO      -0.489400
     12 O11         -1.5870    -0.4820     2.2720 o          1 1GO      -0.477100
     13 C12         -3.0330     1.2390     1.3910 c3         1 1GO      -0.082100
     14 C14         -5.2730    -0.0180     1.0540 cd         1 1GO      -0.109000
     15 C16         -5.4740    -0.5800    -1.2050 cc         1 1GO      -0.229000
     16 S17         -3.9270     0.2580    -1.1450 ss         1 1GO       0.221000
     17 S18          1.6660     1.1330    -0.6190 ss         1 1GO      -0.194800
     18 H1          -7.0100    -1.1100     0.2290 ha         1 1GO       0.137000
     19 H2           5.0760    -1.8080    -1.9490 hn         1 1GO       0.496500
     20 H3           4.8170    -0.5170    -2.8250 hn         1 1GO       0.496500
     21 H4          -0.9610     1.6950     0.0910 hn         1 1GO       0.330500
     22 H5          -3.4100     1.4120     2.4060 hc         1 1GO       0.071200
     23 H6          -2.8480     2.2070     0.9120 hc         1 1GO       0.071200
     24 H7          -5.5820     0.0250     2.0940 ha         1 1GO       0.133000
     25 H8          -5.8390    -0.9640    -2.1490 h4         1 1GO       0.152000
     26 S02          4.5060    -0.1690    -0.7940 sy         1 1GO       1.127200
@<TRIPOS>BOND
     1     1    11 1   
     2     1    12 2   
     3     1    13 1   
     4     2    13 1   
     5     2    14 2   
     6     2    16 1   
     7     3    14 1   
     8     3    15 2   
     9     3    18 1   
    10     4    19 1   
    11     4    20 1   
    12     4    26 1   
    13     5    26 2   
    14     6    26 2   
    15     7     8 2   
    16     7    17 1   
    17     7    26 1   
    18     8     9 1   
    19     9    10 2   
    20    10    11 1   
    21    10    17 1   
    22    11    21 1   
    23    13    22 1   
    24    13    23 1   
    25    14    24 1   
    26    15    16 1   
    27    15    25 1   
@<TRIPOS>SUBSTRUCTURE
     1 1GO         1 TEMP              0 ****  ****    0 ROOT
