@<TRIPOS>MOLECULE
1GQ
   42    44     1     0     0
SMALL
abcg2


@<TRIPOS>ATOM
      1 C10          8.0760     5.9240    34.7590 ca         1 1GQ      -0.249000
      2 C13          7.4970     7.1130    32.7400 ca         1 1GQ      -0.197000
      3 C17         12.1150     3.8760    33.7240 ca         1 1GQ       0.002000
      4 C20         14.2660     4.2890    31.9120 ca         1 1GQ      -0.220300
      5 C21         15.4120     4.3910    30.9500 c3         1 1GQ       0.352300
      6 C01         14.1720    10.3890    31.7350 c3         1 1GQ      -0.089100
      7 C02         13.3460     9.2020    31.2470 c3         1 1GQ      -0.075400
      8 C03         14.2180     8.1130    30.6260 c3         1 1GQ      -0.100400
      9 N05         12.7310     6.1450    31.0470 na         1 1GQ       0.084600
     10 N06         11.5000     6.5900    31.3990 nc         1 1GQ      -0.587100
     11 C07         11.0580     5.8870    32.4300 cd         1 1GQ       0.463500
     12 C08          9.7310     6.1570    32.9790 ca         1 1GQ      -0.243900
     13 C09          9.3430     5.7040    34.2450 ca         1 1GQ      -0.011000
     14 C11          7.1450     6.6250    33.9910 ca         1 1GQ       0.186100
     15 O12          5.8780     6.8710    34.4260 oh         1 1GQ      -0.531100
     16 C14          8.7770     6.9010    32.2380 ca         1 1GQ       0.218100
     17 O15          9.0550     7.4290    31.0230 oh         1 1GQ      -0.548100
     18 C16         12.0510     4.9120    32.7840 ca         1 1GQ      -0.232900
     19 C18         13.2410     3.0830    33.7690 ca         1 1GQ      -0.166000
     20 C19         14.2980     3.2930    32.8730 ca         1 1GQ      -0.014000
     21 F22         16.0260     5.5990    30.9870 f          1 1GQ      -0.114000
     22 F23         15.0180     4.2050    29.6620 f          1 1GQ      -0.114000
     23 F24         16.3690     3.4750    31.1820 f          1 1GQ      -0.114000
     24 C25         13.1210     5.1230    31.8660 ca         1 1GQ       0.026800
     25 H1           7.8110     5.5630    35.7450 ha         1 1GQ       0.118000
     26 H2           6.7830     7.6760    32.1530 ha         1 1GQ       0.147000
     27 H3          11.2950     3.6820    34.3990 ha         1 1GQ       0.124000
     28 H4          13.5380    11.1570    32.1830 hc         1 1GQ       0.033700
     29 H5          14.8990    10.0740    32.4890 hc         1 1GQ       0.033700
     30 H6          14.7260    10.8480    30.9120 hc         1 1GQ       0.033700
     31 H7          12.6090     9.5390    30.5110 hc         1 1GQ       0.046200
     32 H8          12.7780     8.7860    32.0820 hc         1 1GQ       0.046200
     33 H9          14.9350     7.7520    31.3660 hc         1 1GQ       0.056200
     34 H10         14.8040     8.5410    29.8060 hc         1 1GQ       0.056200
     35 H11         12.6910     7.2730    29.3420 h1         1 1GQ       0.072700
     36 H12         14.1150     6.2650    29.5010 h1         1 1GQ       0.072700
     37 H13         10.0580     5.1810    34.8620 ha         1 1GQ       0.110000
     38 H14          5.7520     6.4980    35.3090 ho         1 1GQ       0.466000
     39 H15         10.0140     7.2840    30.8350 ho         1 1GQ       0.509000
     40 H16         13.3110     2.2780    34.4880 ha         1 1GQ       0.126000
     41 H17         15.1590     2.6430    32.9240 ha         1 1GQ       0.132000
     42 C04         13.4500     6.9270    30.0440 c3         1 1GQ       0.093600
@<TRIPOS>BOND
     1     1    13 ar  
     2     1    14 ar  
     3     1    25 1   
     4     2    14 ar  
     5     2    16 ar  
     6     2    26 1   
     7     3    18 ar  
     8     3    19 ar  
     9     3    27 1   
    10     4     5 1   
    11     4    20 ar  
    12     4    24 ar  
    13     5    21 1   
    14     5    22 1   
    15     5    23 1   
    16     6     7 1   
    17     6    28 1   
    18     6    29 1   
    19     6    30 1   
    20     7     8 1   
    21     7    31 1   
    22     7    32 1   
    23     8    33 1   
    24     8    34 1   
    25     8    42 1   
    26     9    10 1   
    27     9    24 1   
    28     9    42 1   
    29    10    11 2   
    30    11    12 1   
    31    11    18 1   
    32    12    13 ar  
    33    12    16 ar  
    34    13    37 1   
    35    14    15 1   
    36    15    38 1   
    37    16    17 1   
    38    17    39 1   
    39    18    24 ar  
    40    19    20 ar  
    41    19    40 1   
    42    20    41 1   
    43    35    42 1   
    44    36    42 1   
@<TRIPOS>SUBSTRUCTURE
     1 1GQ         1 TEMP              0 ****  ****    0 ROOT
