@<TRIPOS>MOLECULE
1GQ
   42    44     1     0     0
SMALL
No Charge or Current Charge


@<TRIPOS>ATOM
      1 C10          8.2640     6.2940    34.8340 ca         1 1GQ      -0.249000
      2 C13          7.2660     6.6020    32.6480 ca         1 1GQ      -0.197000
      3 C17         12.0250     4.0740    33.6550 ca         1 1GQ       0.002000
      4 C20         14.2010     4.3500    31.8180 ca         1 1GQ      -0.220300
      5 C21         15.3310     4.3340    30.7710 c3         1 1GQ       0.352300
      6 C01         14.3360    10.3190    32.0810 c3         1 1GQ      -0.089100
      7 C02         13.4880     9.2330    31.3930 c3         1 1GQ      -0.075400
      8 C03         14.3430     8.1080    30.7630 c3         1 1GQ      -0.100400
      9 N05         12.6540     6.2090    30.8620 na         1 1GQ       0.084600
     10 N06         11.3420     6.6220    31.1140 nc         1 1GQ      -0.587100
     11 C07         10.9840     5.9500    32.2110 cd         1 1GQ       0.463500
     12 C08          9.6570     6.1240    32.8310 ca         1 1GQ      -0.243900
     13 C09          9.5210     6.1030    34.2360 ca         1 1GQ      -0.011000
     14 C11          7.1370     6.5310    34.0380 ca         1 1GQ       0.186100
     15 O12          5.9200     6.7170    34.6160 oh         1 1GQ      -0.531100
     16 C14          8.5180     6.4180    32.0480 ca         1 1GQ       0.218100
     17 O15          8.6190     6.5260    30.6960 oh         1 1GQ      -0.548100
     18 C16         12.0250     5.0470    32.6470 ca         1 1GQ      -0.232900
     19 C18         13.1660     3.2700    33.7830 ca         1 1GQ      -0.166000
     20 C19         14.2380     3.4020    32.8770 ca         1 1GQ      -0.014000
     21 F22         16.0540     5.4740    30.7740 f          1 1GQ      -0.114000
     22 F23         14.8510     4.1530    29.5210 f          1 1GQ      -0.114000
     23 F24         16.2200     3.3330    30.9700 f          1 1GQ      -0.114000
     24 C25         13.0620     5.2090    31.7640 ca         1 1GQ       0.026800
     25 H1           8.1790     6.2640    35.9170 ha         1 1GQ       0.118000
     26 H2           6.3960     6.8100    32.0330 ha         1 1GQ       0.147000
     27 H3          11.1720     3.9220    34.3120 ha         1 1GQ       0.124000
     28 H4          13.6900    11.0920    32.5140 hc         1 1GQ       0.033700
     29 H5          14.9400     9.8860    32.8880 hc         1 1GQ       0.033700
     30 H6          15.0110    10.7990    31.3620 hc         1 1GQ       0.033700
     31 H7          12.8700     9.7010    30.6160 hc         1 1GQ       0.046200
     32 H8          12.8010     8.8050    32.1330 hc         1 1GQ       0.046200
     33 H9          14.9310     7.6270    31.5530 hc         1 1GQ       0.056200
     34 H10         15.0580     8.5570    30.0640 hc         1 1GQ       0.056200
     35 H11         12.8850     7.5450    29.2660 h1         1 1GQ       0.072700
     36 H12         14.1930     6.4000    29.4170 h1         1 1GQ       0.072700
     37 H13         10.3910     5.9570    34.8730 ha         1 1GQ       0.110000
     38 H14          6.0290     6.6380    35.5870 ho         1 1GQ       0.466000
     39 H15          9.5880     6.5830    30.5050 ho         1 1GQ       0.509000
     40 H16         13.2080     2.5120    34.5620 ha         1 1GQ       0.126000
     41 H17         15.0820     2.7260    32.9930 ha         1 1GQ       0.132000
     42 C04         13.5240     7.0360    29.9980 c3         1 1GQ       0.093600
@<TRIPOS>BOND
     1     1    13 ar  
     2     1    14 ar  
     3     1    25 1   
     4     2    14 ar  
     5     2    16 ar  
     6     2    26 1   
     7     3    18 ar  
     8     3    19 ar  
     9     3    27 1   
    10     4     5 1   
    11     4    20 ar  
    12     4    24 ar  
    13     5    21 1   
    14     5    22 1   
    15     5    23 1   
    16     6     7 1   
    17     6    28 1   
    18     6    29 1   
    19     6    30 1   
    20     7     8 1   
    21     7    31 1   
    22     7    32 1   
    23     8    33 1   
    24     8    34 1   
    25     8    42 1   
    26     9    10 1   
    27     9    24 1   
    28     9    42 1   
    29    10    11 2   
    30    11    12 1   
    31    11    18 1   
    32    12    13 ar  
    33    12    16 ar  
    34    13    37 1   
    35    14    15 1   
    36    15    38 1   
    37    16    17 1   
    38    17    39 1   
    39    18    24 ar  
    40    19    20 ar  
    41    19    40 1   
    42    20    41 1   
    43    35    42 1   
    44    36    42 1   
@<TRIPOS>SUBSTRUCTURE
     1 1GQ         1 TEMP              0 ****  ****    0 ROOT
