@<TRIPOS>MOLECULE
1GR
   42    44     1     0     0
SMALL
No Charge or Current Charge


@<TRIPOS>ATOM
      1 C01          1.1510    -3.0740     1.5570 c3         1 1GR      -0.087100
      2 C02          2.3350    -2.3810     0.8410 c3         1 1GR      -0.082700
      3 C03          3.5620    -3.3180     0.7780 c3         1 1GR      -0.087100
      4 C04          1.9630    -1.8580    -0.5770 c3         1 1GR       0.089600
      5 N01          0.9430    -0.7860    -0.5900 na         1 1GR       0.083600
      6 N02         -0.4120    -1.1250    -0.6700 nc         1 1GR      -0.491100
      7 C05          1.1170     0.5490    -0.1800 ca         1 1GR       0.012800
      8 C06          2.2540     1.4060    -0.0810 ca         1 1GR      -0.219300
      9 C07          3.6800     1.0160    -0.5130 c3         1 1GR       0.363300
     10 F01          3.7080     0.5510    -1.7820 f          1 1GR      -0.115667
     11 F02          4.5420     2.0590    -0.4870 f          1 1GR      -0.115667
     12 F03          4.2200     0.0700     0.2830 f          1 1GR      -0.115667
     13 C08          2.0160     2.7310     0.3820 ca         1 1GR      -0.024000
     14 C09          0.7130     3.1890     0.6690 ca         1 1GR      -0.165000
     15 C10         -0.3920     2.3450     0.4850 ca         1 1GR      -0.003000
     16 C11         -0.1390     1.0360     0.0630 ca         1 1GR      -0.234900
     17 C12         -1.0560    -0.0240    -0.2790 cd         1 1GR       0.425500
     18 C13         -2.5160     0.0460    -0.1150 ca         1 1GR      -0.173900
     19 C14         -3.0490     0.4700     1.1200 ca         1 1GR      -0.025000
     20 C15         -4.4390     0.5160     1.3130 ca         1 1GR      -0.188000
     21 C16         -5.3040     0.1340     0.2820 ca         1 1GR       0.191100
     22 O01         -6.6480     0.1810     0.4730 oh         1 1GR      -0.528100
     23 C17         -4.7880    -0.2960    -0.9460 ca         1 1GR      -0.316000
     24 C18         -3.4000    -0.3450    -1.1440 ca         1 1GR       0.210100
     25 O02         -2.9340    -0.7410    -2.3600 oh         1 1GR      -0.510100
     26 H1           0.7710    -3.9140     0.9630 hc         1 1GR       0.037867
     27 H2           1.4620    -3.4600     2.5360 hc         1 1GR       0.037867
     28 H3           0.3270    -2.3710     1.7280 hc         1 1GR       0.037867
     29 H4           2.6170    -1.5180     1.4570 hc         1 1GR       0.060700
     30 H5           3.3400    -4.2130     0.1840 hc         1 1GR       0.037867
     31 H6           4.4190    -2.8070     0.3210 hc         1 1GR       0.037867
     32 H7           3.8600    -3.6380     1.7840 hc         1 1GR       0.037867
     33 H8           2.8590    -1.5210    -1.1000 h1         1 1GR       0.071700
     34 H9           1.5730    -2.6990    -1.1650 h1         1 1GR       0.071700
     35 H10          2.8360     3.4360     0.5000 ha         1 1GR       0.128000
     36 H11          0.5610     4.2130     1.0020 ha         1 1GR       0.123000
     37 H12         -1.4040     2.7070     0.6540 ha         1 1GR       0.125000
     38 H13         -2.3860     0.7520     1.9350 ha         1 1GR       0.121000
     39 H14         -4.8440     0.8430     2.2670 ha         1 1GR       0.134000
     40 H15         -7.0810    -0.1220    -0.3520 ho         1 1GR       0.467000
     41 H16         -5.4640    -0.5890    -1.7460 ha         1 1GR       0.114000
     42 H17         -3.7050    -0.9680    -2.9190 ho         1 1GR       0.464000
@<TRIPOS>BOND
     1     1     2 1   
     2     1    26 1   
     3     1    27 1   
     4     1    28 1   
     5     2     3 1   
     6     2     4 1   
     7     2    29 1   
     8     3    30 1   
     9     3    31 1   
    10     3    32 1   
    11     4     5 1   
    12     4    33 1   
    13     4    34 1   
    14     5     6 1   
    15     5     7 1   
    16     6    17 2   
    17     7     8 ar  
    18     7    16 ar  
    19     8     9 1   
    20     8    13 ar  
    21     9    10 1   
    22     9    11 1   
    23     9    12 1   
    24    13    14 ar  
    25    13    35 1   
    26    14    15 ar  
    27    14    36 1   
    28    15    16 ar  
    29    15    37 1   
    30    16    17 1   
    31    17    18 1   
    32    18    19 ar  
    33    18    24 ar  
    34    19    20 ar  
    35    19    38 1   
    36    20    21 ar  
    37    20    39 1   
    38    21    22 1   
    39    21    23 ar  
    40    22    40 1   
    41    23    24 ar  
    42    23    41 1   
    43    24    25 1   
    44    25    42 1   
@<TRIPOS>SUBSTRUCTURE
     1 1GR         1 TEMP              0 ****  ****    0 ROOT
