@<TRIPOS>MOLECULE
1GR
   42    44     1     0     0
SMALL
abcg2


@<TRIPOS>ATOM
      1 C01          1.1420    -3.1110     1.5110 c3         1 1GR      -0.087100
      2 C02          2.3100    -2.4270     0.8110 c3         1 1GR      -0.082700
      3 C03          3.4530    -3.4080     0.5750 c3         1 1GR      -0.087100
      4 C04          1.9050    -1.8130    -0.5330 c3         1 1GR       0.089600
      5 N01          0.9620    -0.7160    -0.4210 na         1 1GR       0.083600
      6 N02         -0.3390    -1.0450    -0.4100 nc         1 1GR      -0.491100
      7 C05          1.1430     0.6020    -0.1160 ca         1 1GR       0.012800
      8 C06          2.2600     1.4700    -0.0370 ca         1 1GR      -0.219300
      9 C07          3.6610     1.0650    -0.3710 c3         1 1GR       0.363300
     10 F01          3.7480     0.5810    -1.6220 f          1 1GR      -0.115667
     11 F02          4.5180     2.0840    -0.2990 f          1 1GR      -0.115667
     12 F03          4.1390     0.1140     0.4460 f          1 1GR      -0.115667
     13 C08          2.0150     2.7870     0.3000 ca         1 1GR      -0.024000
     14 C09          0.7260     3.2850     0.5370 ca         1 1GR      -0.165000
     15 C10         -0.3660     2.4600     0.4230 ca         1 1GR      -0.003000
     16 C11         -0.1520     1.1190     0.1040 ca         1 1GR      -0.234900
     17 C12         -1.0310     0.0200    -0.1060 cd         1 1GR       0.425500
     18 C13         -2.4930     0.0250    -0.0030 ca         1 1GR      -0.173900
     19 C14         -3.1130     0.5420     1.1330 ca         1 1GR      -0.025000
     20 C15         -4.4880     0.5890     1.2730 ca         1 1GR      -0.188000
     21 C16         -5.2870     0.1030     0.2400 ca         1 1GR       0.191100
     22 O01         -6.6210     0.1570     0.3970 oh         1 1GR      -0.528100
     23 C17         -4.6980    -0.4160    -0.9080 ca         1 1GR      -0.316000
     24 C18         -3.3120    -0.4560    -1.0320 ca         1 1GR       0.210100
     25 O02         -2.7230    -0.9370    -2.1390 oh         1 1GR      -0.510100
     26 H1           0.7420    -3.9220     0.8980 hc         1 1GR       0.037867
     27 H2           1.4680    -3.5420     2.4590 hc         1 1GR       0.037867
     28 H3           0.3250    -2.4230     1.7250 hc         1 1GR       0.037867
     29 H4           2.6750    -1.6250     1.4580 hc         1 1GR       0.060700
     30 H5           3.1380    -4.2330    -0.0680 hc         1 1GR       0.037867
     31 H6           4.3080    -2.9230     0.1000 hc         1 1GR       0.037867
     32 H7           3.7950    -3.8370     1.5170 hc         1 1GR       0.037867
     33 H8           2.7800    -1.4830    -1.0850 h1         1 1GR       0.071700
     34 H9           1.4190    -2.5680    -1.1530 h1         1 1GR       0.071700
     35 H10          2.8390     3.4820     0.3720 ha         1 1GR       0.128000
     36 H11          0.6040     4.3300     0.7870 ha         1 1GR       0.123000
     37 H12         -1.3690     2.8380     0.5730 ha         1 1GR       0.125000
     38 H13         -2.4970     0.9080     1.9450 ha         1 1GR       0.121000
     39 H14         -4.9390     0.9920     2.1700 ha         1 1GR       0.134000
     40 H15         -7.0700    -0.2030    -0.3760 ho         1 1GR       0.467000
     41 H16         -5.3190    -0.7900    -1.7170 ha         1 1GR       0.114000
     42 H17         -3.3890    -1.1910    -2.7870 ho         1 1GR       0.464000
@<TRIPOS>BOND
     1     1     2 1   
     2     1    26 1   
     3     1    27 1   
     4     1    28 1   
     5     2     3 1   
     6     2     4 1   
     7     2    29 1   
     8     3    30 1   
     9     3    31 1   
    10     3    32 1   
    11     4     5 1   
    12     4    33 1   
    13     4    34 1   
    14     5     6 1   
    15     5     7 1   
    16     6    17 2   
    17     7     8 ar  
    18     7    16 ar  
    19     8     9 1   
    20     8    13 ar  
    21     9    10 1   
    22     9    11 1   
    23     9    12 1   
    24    13    14 ar  
    25    13    35 1   
    26    14    15 ar  
    27    14    36 1   
    28    15    16 ar  
    29    15    37 1   
    30    16    17 1   
    31    17    18 1   
    32    18    19 ar  
    33    18    24 ar  
    34    19    20 ar  
    35    19    38 1   
    36    20    21 ar  
    37    20    39 1   
    38    21    22 1   
    39    21    23 ar  
    40    22    40 1   
    41    23    24 ar  
    42    23    41 1   
    43    24    25 1   
    44    25    42 1   
@<TRIPOS>SUBSTRUCTURE
     1 1GR         1 TEMP              0 ****  ****    0 ROOT
