@<TRIPOS>MOLECULE
1GS
   42    44     1     0     0
SMALL
bcc


@<TRIPOS>ATOM
      1 C01          0.2090    -3.0980     1.2140 c3         1 1GS      -0.090100
      2 C02          1.2520    -2.8630     0.1300 c3         1 1GS      -0.076700
      3 C03          1.8650    -4.1760    -0.3480 c3         1 1GS      -0.090100
      4 C04          0.6690    -2.1360    -1.0820 c3         1 1GS       0.042300
      5 N01         -0.0030    -0.8960    -0.7350 na         1 1GS       0.193800
      6 N02         -1.3330    -0.8710    -0.7490 nc         1 1GS      -0.275400
      7 C05         -1.6500     0.3360    -0.2850 ca         1 1GS      -0.040000
      8 C06         -2.9340     0.9050    -0.0930 ca         1 1GS      -0.184300
      9 C07         -4.1490     0.1070    -0.4160 c3         1 1GS       0.731200
     10 F01         -4.1570    -0.2950    -1.6970 f          1 1GS      -0.235967
     11 F02         -4.2290    -1.0060     0.3300 f          1 1GS      -0.235967
     12 F03         -5.2830     0.7880    -0.2180 f          1 1GS      -0.235967
     13 C08         -3.0010     2.1810     0.4000 ca         1 1GS      -0.043000
     14 C09         -1.8330     2.9250     0.7080 ca         1 1GS      -0.181000
     15 C10         -0.5840     2.3970     0.5290 ca         1 1GS      -0.022000
     16 C11         -0.4880     1.0850     0.0280 ca         1 1GS      -0.140000
     17 C12          0.5710     0.2320    -0.2870 cc         1 1GS      -0.005300
     18 C13          2.0160     0.4490    -0.2030 ca         1 1GS      -0.125800
     19 C14          2.8180     0.4760    -1.3390 ca         1 1GS      -0.032000
     20 C15          4.1820     0.6960    -1.2690 ca         1 1GS      -0.266000
     21 C16          4.7690     0.9060    -0.0220 ca         1 1GS       0.196100
     22 O01          6.0840     1.1370     0.1290 oh         1 1GS      -0.489100
     23 C17          3.9910     0.8860     1.1310 ca         1 1GS      -0.274000
     24 C18          2.6240     0.6550     1.0430 ca         1 1GS       0.202100
     25 O02          1.8370     0.6110     2.1280 oh         1 1GS      -0.475100
     26 H1          -0.6370    -3.6740     0.8320 hc         1 1GS       0.040533
     27 H2           0.6440    -3.6560     2.0430 hc         1 1GS       0.040533
     28 H3          -0.1810    -2.1640     1.6190 hc         1 1GS       0.040533
     29 H4           2.0550    -2.2470     0.5450 hc         1 1GS       0.055700
     30 H5           1.1040    -4.8290    -0.7810 hc         1 1GS       0.040533
     31 H6           2.6310    -4.0080    -1.1070 hc         1 1GS       0.040533
     32 H7           2.3290    -4.7110     0.4800 hc         1 1GS       0.040533
     33 H8           1.4520    -1.9290    -1.8120 h1         1 1GS       0.072200
     34 H9          -0.0790    -2.7580    -1.5730 h1         1 1GS       0.072200
     35 H10         -3.9590     2.6540     0.5670 ha         1 1GS       0.143000
     36 H11         -1.9490     3.9290     1.0930 ha         1 1GS       0.134000
     37 H12          0.3040     2.9710     0.7610 ha         1 1GS       0.137000
     38 H13          2.3610     0.3320    -2.3110 ha         1 1GS       0.140000
     39 H14          4.7780     0.7180    -2.1730 ha         1 1GS       0.140000
     40 H15          6.5270     1.1420    -0.7270 ho         1 1GS       0.433000
     41 H16          4.4590     1.0500     2.0950 ha         1 1GS       0.152000
     42 H17          2.3560     0.7540     2.9280 ho         1 1GS       0.431000
@<TRIPOS>BOND
     1     1     2 1   
     2     1    26 1   
     3     1    27 1   
     4     1    28 1   
     5     2     3 1   
     6     2     4 1   
     7     2    29 1   
     8     3    30 1   
     9     3    31 1   
    10     3    32 1   
    11     4     5 1   
    12     4    33 1   
    13     4    34 1   
    14     5     6 1   
    15     5    17 1   
    16     6     7 2   
    17     7     8 ar  
    18     7    16 ar  
    19     8     9 1   
    20     8    13 ar  
    21     9    10 1   
    22     9    11 1   
    23     9    12 1   
    24    13    14 ar  
    25    13    35 1   
    26    14    15 ar  
    27    14    36 1   
    28    15    16 ar  
    29    15    37 1   
    30    16    17 2   
    31    17    18 1   
    32    18    19 ar  
    33    18    24 ar  
    34    19    20 ar  
    35    19    38 1   
    36    20    21 ar  
    37    20    39 1   
    38    21    22 1   
    39    21    23 ar  
    40    22    40 1   
    41    23    24 ar  
    42    23    41 1   
    43    24    25 1   
    44    25    42 1   
@<TRIPOS>SUBSTRUCTURE
     1 1GS         1 TEMP              0 ****  ****    0 ROOT
