@<TRIPOS>MOLECULE
1GS
   42    44     1     0     0
SMALL
No Charge or Current Charge


@<TRIPOS>ATOM
      1 C01          0.3540    -3.3680     1.2110 c3         1 1GS      -0.090100
      2 C02          1.3160    -2.9770     0.0630 c3         1 1GS      -0.076700
      3 C03          2.0910    -4.2080    -0.4570 c3         1 1GS      -0.090100
      4 C04          0.5880    -2.2480    -1.0980 c3         1 1GS       0.071600
      5 N01         -0.0820    -0.9940    -0.7050 na         1 1GS       0.164500
      6 N02         -1.4780    -0.8980    -0.7370 nc         1 1GS      -0.275400
      7 C05         -1.7160     0.4020    -0.2680 ca         1 1GS      -0.040000
      8 C06         -2.9700     1.0290    -0.1060 ca         1 1GS      -0.184300
      9 C07         -4.2730     0.2880    -0.4440 c3         1 1GS       0.367300
     10 F01         -4.3150    -0.0810    -1.7450 f          1 1GS      -0.114667
     11 F02         -4.4140    -0.8380     0.2930 f          1 1GS      -0.114667
     12 F03         -5.3790     1.0350    -0.2200 f          1 1GS      -0.114667
     13 C08         -2.9850     2.3650     0.3770 ca         1 1GS      -0.025000
     14 C09         -1.7820     3.0410     0.6810 ca         1 1GS      -0.163000
     15 C10         -0.5430     2.3970     0.5140 ca         1 1GS      -0.004000
     16 C11         -0.5600     1.0800     0.0440 ca         1 1GS      -0.140000
     17 C12          0.5010     0.1770    -0.2340 cc         1 1GS      -0.005300
     18 C13          1.9370     0.4420    -0.1230 ca         1 1GS      -0.125800
     19 C14          2.7480     0.3540    -1.2720 ca         1 1GS      -0.014000
     20 C15          4.1290     0.5960    -1.1860 ca         1 1GS      -0.248000
     21 C16          4.7060     0.9260     0.0460 ca         1 1GS       0.196100
     22 O01          6.0420     1.1600     0.1350 oh         1 1GS      -0.528100
     23 C17          3.9110     1.0130     1.1940 ca         1 1GS      -0.256000
     24 C18          2.5320     0.7730     1.1140 ca         1 1GS       0.202100
     25 O02          1.7850     0.8340     2.2540 oh         1 1GS      -0.514100
     26 H1          -0.4360    -4.0360     0.8480 hc         1 1GS       0.040533
     27 H2           0.8970    -3.8820     2.0130 hc         1 1GS       0.040533
     28 H3          -0.1200    -2.4800     1.6470 hc         1 1GS       0.040533
     29 H4           2.0590    -2.2870     0.4810 hc         1 1GS       0.055700
     30 H5           1.4060    -4.9490    -0.8880 hc         1 1GS       0.040533
     31 H6           2.8110    -3.9150    -1.2310 hc         1 1GS       0.040533
     32 H7           2.6490    -4.6880     0.3570 hc         1 1GS       0.040533
     33 H8           1.3090    -2.0130    -1.8890 h1         1 1GS       0.072200
     34 H9          -0.1610    -2.9210    -1.5330 h1         1 1GS       0.072200
     35 H10         -3.9260     2.8920     0.5180 ha         1 1GS       0.125000
     36 H11         -1.8130     4.0650     1.0460 ha         1 1GS       0.116000
     37 H12          0.3920     2.9050     0.7400 ha         1 1GS       0.119000
     38 H13          2.3050     0.1110    -2.2360 ha         1 1GS       0.122000
     39 H14          4.7410     0.5280    -2.0830 ha         1 1GS       0.122000
     40 H15          6.4280     1.0540    -0.7600 ho         1 1GS       0.472000
     41 H16          4.3750     1.2640     2.1440 ha         1 1GS       0.134000
     42 H17          2.3800     1.0590     2.9980 ho         1 1GS       0.470000
@<TRIPOS>BOND
     1     1     2 1   
     2     1    26 1   
     3     1    27 1   
     4     1    28 1   
     5     2     3 1   
     6     2     4 1   
     7     2    29 1   
     8     3    30 1   
     9     3    31 1   
    10     3    32 1   
    11     4     5 1   
    12     4    33 1   
    13     4    34 1   
    14     5     6 1   
    15     5    17 1   
    16     6     7 2   
    17     7     8 ar  
    18     7    16 ar  
    19     8     9 1   
    20     8    13 ar  
    21     9    10 1   
    22     9    11 1   
    23     9    12 1   
    24    13    14 ar  
    25    13    35 1   
    26    14    15 ar  
    27    14    36 1   
    28    15    16 ar  
    29    15    37 1   
    30    16    17 2   
    31    17    18 1   
    32    18    19 ar  
    33    18    24 ar  
    34    19    20 ar  
    35    19    38 1   
    36    20    21 ar  
    37    20    39 1   
    38    21    22 1   
    39    21    23 ar  
    40    22    40 1   
    41    23    24 ar  
    42    23    41 1   
    43    24    25 1   
    44    25    42 1   
@<TRIPOS>SUBSTRUCTURE
     1 1GS         1 TEMP              0 ****  ****    0 ROOT
