@<TRIPOS>MOLECULE
1GT
   40    42     1     0     0
SMALL
abcg2


@<TRIPOS>ATOM
      1 C01         16.7720    -7.6660     7.6370 c2         1 1GT      -0.305000
      2 C02         17.8280    -6.8810     7.8200 c2         1 1GT      -0.224200
      3 C03         18.3680    -5.9260     6.8010 c3         1 1GT      -0.067200
      4 C04         18.2310    -4.4730     7.2750 c3         1 1GT       0.094600
      5 N05         18.8370    -3.5320     6.3430 na         1 1GT       0.083600
      6 N06         18.1090    -3.2240     5.2420 nc         1 1GT      -0.591100
      7 C07         18.8510    -2.5010     4.4160 cd         1 1GT       0.467500
      8 C08         18.2750    -2.0010     3.1700 ca         1 1GT      -0.246900
      9 C09         19.0720    -1.5220     2.1210 ca         1 1GT      -0.017000
     10 C10         18.5370    -1.0150     0.9520 ca         1 1GT      -0.190000
     11 C11         17.1500    -0.9740     0.8020 ca         1 1GT       0.189100
     12 O12         16.6550    -0.4610    -0.3580 oh         1 1GT      -0.533100
     13 C13         16.3240    -1.4600     1.8080 ca         1 1GT      -0.257000
     14 C14         16.8720    -1.9850     2.9750 ca         1 1GT       0.225100
     15 O15         16.0040    -2.4650     3.8950 oh         1 1GT      -0.551100
     16 C16         20.1520    -2.3220     5.0000 ca         1 1GT      -0.232900
     17 C17         21.3060    -1.6210     4.6300 ca         1 1GT       0.003000
     18 C18         22.4030    -1.6510     5.4650 ca         1 1GT      -0.165000
     19 C19         22.3600    -2.3570     6.6750 ca         1 1GT      -0.013000
     20 C20         21.2310    -3.0410     7.0920 ca         1 1GT      -0.221300
     21 C21         21.2580    -3.7250     8.4250 c3         1 1GT       0.351300
     22 F22         20.3350    -3.2130     9.2840 f          1 1GT      -0.113333
     23 F23         22.4470    -3.6110     9.0420 f          1 1GT      -0.113333
     24 F24         20.9990    -5.0540     8.3410 f          1 1GT      -0.113333
     25 C25         20.1000    -3.0220     6.2400 ca         1 1GT       0.026800
     26 H1          16.2270    -7.6680     6.6980 ha         1 1GT       0.165000
     27 H2          16.4210    -8.3340     8.4130 ha         1 1GT       0.165000
     28 H4          18.3490    -6.9010     8.7750 ha         1 1GT       0.172000
     29 H5          17.8410    -6.0430     5.8520 hc         1 1GT       0.062200
     30 H6          18.6710    -4.3370     8.2560 h1         1 1GT       0.073700
     31 H7          17.1790    -4.2010     7.3470 h1         1 1GT       0.073700
     32 H8          20.1470    -1.5670     2.2110 ha         1 1GT       0.112000
     33 H9          19.1750    -0.6570     0.1550 ha         1 1GT       0.133000
     34 H10         15.6880    -0.4920    -0.3530 ho         1 1GT       0.468000
     35 H11         15.2470    -1.4520     1.6920 ha         1 1GT       0.132000
     36 H12         16.5250    -2.8810     4.6240 ho         1 1GT       0.510000
     37 H13         21.3470    -1.0530     3.7140 ha         1 1GT       0.125000
     38 H14         23.3050    -1.1190     5.1960 ha         1 1GT       0.126000
     39 H15         23.2350    -2.3560     7.3090 ha         1 1GT       0.132000
     40 H3          19.4270    -6.1320     6.6230 hc         1 1GT       0.062200
@<TRIPOS>BOND
     1     1     2 2   
     2     1    26 1   
     3     1    27 1   
     4     2     3 1   
     5     2    28 1   
     6     3     4 1   
     7     3    29 1   
     8     3    40 1   
     9     4     5 1   
    10     4    30 1   
    11     4    31 1   
    12     5     6 1   
    13     5    25 1   
    14     6     7 2   
    15     7     8 1   
    16     7    16 1   
    17     8     9 ar  
    18     8    14 ar  
    19     9    10 ar  
    20     9    32 1   
    21    10    11 ar  
    22    10    33 1   
    23    11    12 1   
    24    11    13 ar  
    25    12    34 1   
    26    13    14 ar  
    27    13    35 1   
    28    14    15 1   
    29    15    36 1   
    30    16    17 ar  
    31    16    25 ar  
    32    17    18 ar  
    33    17    37 1   
    34    18    19 ar  
    35    18    38 1   
    36    19    20 ar  
    37    19    39 1   
    38    20    21 1   
    39    20    25 ar  
    40    21    22 1   
    41    21    23 1   
    42    21    24 1   
@<TRIPOS>SUBSTRUCTURE
     1 1GT         1 TEMP              0 ****  ****    0 ROOT
