@<TRIPOS>MOLECULE
1GT
   40    42     1     0     0
SMALL
No Charge or Current Charge


@<TRIPOS>ATOM
      1 C01         17.0690    -7.9650     7.6560 c2         1 1GT      -0.305000
      2 C02         18.0550    -7.0740     7.8390 c2         1 1GT      -0.224200
      3 C03         18.4890    -6.0330     6.8260 c3         1 1GT      -0.067200
      4 C04         18.1930    -4.5930     7.2990 c3         1 1GT       0.094600
      5 N05         18.6690    -3.5630     6.3530 na         1 1GT       0.083600
      6 N06         17.8610    -3.1960     5.2730 nc         1 1GT      -0.591100
      7 C07         18.6710    -2.5030     4.4690 cd         1 1GT       0.467500
      8 C08         18.2010    -1.9430     3.1880 ca         1 1GT      -0.246900
      9 C09         19.0530    -1.9320     2.0620 ca         1 1GT      -0.017000
     10 C10         18.6010    -1.4220     0.8340 ca         1 1GT      -0.190000
     11 C11         17.2930    -0.9410     0.7090 ca         1 1GT       0.189100
     12 O12         16.8640    -0.4500    -0.4850 oh         1 1GT      -0.533100
     13 C13         16.4240    -0.9890     1.8040 ca         1 1GT      -0.257000
     14 C14         16.8690    -1.5020     3.0290 ca         1 1GT       0.225100
     15 O15         15.9920    -1.5660     4.0640 oh         1 1GT      -0.551100
     16 C16         19.9930    -2.3640     5.0360 ca         1 1GT      -0.232900
     17 C17         21.0970    -1.6230     4.5950 ca         1 1GT       0.003000
     18 C18         22.2440    -1.6220     5.4000 ca         1 1GT      -0.165000
     19 C19         22.2520    -2.3080     6.6310 ca         1 1GT      -0.013000
     20 C20         21.1080    -3.0140     7.0980 ca         1 1GT      -0.221300
     21 C21         21.1570    -3.6440     8.5030 c3         1 1GT       0.351300
     22 F22         20.2230    -3.1100     9.3220 f          1 1GT      -0.113333
     23 F23         22.3420    -3.4560     9.1260 f          1 1GT      -0.113333
     24 F24         20.9680    -4.9810     8.4740 f          1 1GT      -0.113333
     25 C25         19.9700    -3.0360     6.2330 ca         1 1GT       0.026800
     26 H1          16.4880    -8.0020     6.7330 ha         1 1GT       0.165000
     27 H2          16.8070    -8.6930     8.4260 ha         1 1GT       0.165000
     28 H4          18.6230    -7.0630     8.7730 ha         1 1GT       0.172000
     29 H5          17.9800    -6.1960     5.8670 hc         1 1GT       0.062200
     30 H6          18.5980    -4.4240     8.2960 h1         1 1GT       0.073700
     31 H7          17.1050    -4.4810     7.3930 h1         1 1GT       0.073700
     32 H8          20.0610    -2.3350     2.1250 ha         1 1GT       0.112000
     33 H9          19.2670    -1.4100    -0.0260 ha         1 1GT       0.133000
     34 H10         15.9300    -0.1690    -0.3820 ho         1 1GT       0.468000
     35 H11         15.3990    -0.6400     1.7120 ha         1 1GT       0.132000
     36 H12         16.4230    -2.1460     4.7420 ho         1 1GT       0.510000
     37 H13         21.0770    -1.0490     3.6720 ha         1 1GT       0.125000
     38 H14         23.1240    -1.0670     5.0850 ha         1 1GT       0.126000
     39 H15         23.1580    -2.2530     7.2300 ha         1 1GT       0.132000
     40 H3          19.5610    -6.1380     6.6200 hc         1 1GT       0.062200
@<TRIPOS>BOND
     1     1     2 2   
     2     1    26 1   
     3     1    27 1   
     4     2     3 1   
     5     2    28 1   
     6     3     4 1   
     7     3    29 1   
     8     3    40 1   
     9     4     5 1   
    10     4    30 1   
    11     4    31 1   
    12     5     6 1   
    13     5    25 1   
    14     6     7 2   
    15     7     8 1   
    16     7    16 1   
    17     8     9 ar  
    18     8    14 ar  
    19     9    10 ar  
    20     9    32 1   
    21    10    11 ar  
    22    10    33 1   
    23    11    12 1   
    24    11    13 ar  
    25    12    34 1   
    26    13    14 ar  
    27    13    35 1   
    28    14    15 1   
    29    15    36 1   
    30    16    17 ar  
    31    16    25 ar  
    32    17    18 ar  
    33    17    37 1   
    34    18    19 ar  
    35    18    38 1   
    36    19    20 ar  
    37    19    39 1   
    38    20    21 1   
    39    20    25 ar  
    40    21    22 1   
    41    21    23 1   
    42    21    24 1   
@<TRIPOS>SUBSTRUCTURE
     1 1GT         1 TEMP              0 ****  ****    0 ROOT
