@<TRIPOS>MOLECULE
1GU
   40    42     1     0     0
SMALL
abcg2


@<TRIPOS>ATOM
      1 C01          1.3680     5.5010     0.2970 c2         1 1GU      -0.296000
      2 C02          1.8110     4.2520     0.3610 c2         1 1GU      -0.232200
      3 C03          0.9510     3.0600     0.6400 c3         1 1GU      -0.059200
      4 C04          0.9350     2.1130    -0.5590 c3         1 1GU       0.072600
      5 N05          0.1750     0.9070    -0.2870 na         1 1GU       0.165500
      6 N06         -1.1480     0.9920    -0.2530 nc         1 1GU      -0.268400
      7 C07         -1.5600    -0.2440     0.0170 ca         1 1GU      -0.042000
      8 C08         -2.8840    -0.7290     0.1640 ca         1 1GU      -0.181300
      9 C09         -4.0330     0.2070     0.0010 c3         1 1GU       0.368300
     10 F10         -3.9910     1.2050     0.8950 f          1 1GU      -0.112667
     11 F11         -4.0370     0.7800    -1.2110 f          1 1GU      -0.112667
     12 F12         -5.2150    -0.3980     0.1490 f          1 1GU      -0.112667
     13 C13         -3.0500    -2.0560     0.4550 ca         1 1GU      -0.026000
     14 C14         -1.9440    -2.9330     0.6100 ca         1 1GU      -0.150000
     15 C15         -0.6590    -2.4900     0.4690 ca         1 1GU      -0.021000
     16 C16         -0.4620    -1.1290     0.1650 ca         1 1GU      -0.157000
     17 C17          0.6630    -0.3230    -0.0380 cc         1 1GU      -0.038300
     18 C18          2.0840    -0.6720    -0.0080 ca         1 1GU      -0.189800
     19 C19          2.9420    -0.1630     0.9660 ca         1 1GU      -0.008000
     20 C20          4.2790    -0.5080     1.0140 ca         1 1GU      -0.251000
     21 C21          4.7830    -1.4010     0.0670 ca         1 1GU       0.192100
     22 O22          6.0690    -1.7870     0.0560 oh         1 1GU      -0.524100
     23 C23          3.9500    -1.9260    -0.9130 ca         1 1GU      -0.197000
     24 C24          2.6090    -1.5650    -0.9540 ca         1 1GU       0.210100
     25 O25          1.8650    -2.1040    -1.9350 oh         1 1GU      -0.528100
     26 H1           0.3240     5.7440     0.4560 ha         1 1GU       0.167000
     27 H2           2.0340     6.3280     0.0890 ha         1 1GU       0.167000
     28 H4           2.8660     4.0530     0.1950 ha         1 1GU       0.167000
     29 H6           1.3390     2.5230     1.5110 hc         1 1GU       0.063700
     30 H7          -0.0690     3.3690     0.8770 hc         1 1GU       0.063700
     31 H8           0.4830     2.5990    -1.4230 h1         1 1GU       0.075700
     32 H9           1.9460     1.8150    -0.8350 h1         1 1GU       0.075700
     33 H10         -4.0420    -2.4680     0.5800 ha         1 1GU       0.128000
     34 H11         -2.1400    -3.9700     0.8440 ha         1 1GU       0.121000
     35 H12          0.1810    -3.1620     0.5940 ha         1 1GU       0.126000
     36 H13          2.5480     0.5100     1.7170 ha         1 1GU       0.119000
     37 H14          4.9190    -0.0960     1.7850 ha         1 1GU       0.122000
     38 H15          6.5540    -1.3650     0.7740 ho         1 1GU       0.471000
     39 H16          4.3450    -2.6130    -1.6520 ha         1 1GU       0.150000
     40 H17          0.9680    -1.7460    -1.9320 ho         1 1GU       0.483000
@<TRIPOS>BOND
     1     1     2 2   
     2     1    26 1   
     3     1    27 1   
     4     2     3 1   
     5     2    28 1   
     6     3     4 1   
     7     3    29 1   
     8     3    30 1   
     9     4     5 1   
    10     4    31 1   
    11     4    32 1   
    12     5     6 1   
    13     5    17 1   
    14     6     7 2   
    15     7     8 ar  
    16     7    16 ar  
    17     8     9 1   
    18     8    13 ar  
    19     9    10 1   
    20     9    11 1   
    21     9    12 1   
    22    13    14 ar  
    23    13    33 1   
    24    14    15 ar  
    25    14    34 1   
    26    15    16 ar  
    27    15    35 1   
    28    16    17 2   
    29    17    18 1   
    30    18    19 ar  
    31    18    24 ar  
    32    19    20 ar  
    33    19    36 1   
    34    20    21 ar  
    35    20    37 1   
    36    21    22 1   
    37    21    23 ar  
    38    22    38 1   
    39    23    24 ar  
    40    23    39 1   
    41    24    25 1   
    42    25    40 1   
@<TRIPOS>SUBSTRUCTURE
     1 1GU         1 TEMP              0 ****  ****    0 ROOT
