@<TRIPOS>MOLECULE
1GU
   40    42     1     0     0
SMALL
No Charge or Current Charge


@<TRIPOS>ATOM
      1 C01          1.3960     5.6840     0.2880 c2         1 1GU      -0.296000
      2 C02          1.8570     4.4300     0.4080 c2         1 1GU      -0.232200
      3 C03          1.0030     3.2100     0.6940 c3         1 1GU      -0.059200
      4 C04          0.9860     2.2190    -0.4900 c3         1 1GU       0.072600
      5 N05          0.1970     1.0040    -0.2270 na         1 1GU       0.165500
      6 N06         -1.2010     1.0520    -0.2360 nc         1 1GU      -0.268400
      7 C07         -1.5660    -0.2800     0.0060 ca         1 1GU      -0.042000
      8 C08         -2.8770    -0.7920     0.1170 ca         1 1GU      -0.181300
      9 C09         -4.0990     0.1270    -0.0430 c3         1 1GU       0.368300
     10 F10         -4.1100     1.1110     0.8850 f          1 1GU      -0.112667
     11 F11         -4.1200     0.7250    -1.2560 f          1 1GU      -0.112667
     12 F12         -5.2740    -0.5330     0.0810 f          1 1GU      -0.112667
     13 C13         -3.0250    -2.1780     0.3880 ca         1 1GU      -0.026000
     14 C14         -1.8960    -3.0120     0.5470 ca         1 1GU      -0.150000
     15 C15         -0.5990    -2.4830     0.4320 ca         1 1GU      -0.021000
     16 C16         -0.4830    -1.1170     0.1470 ca         1 1GU      -0.157000
     17 C17          0.6610    -0.2910    -0.0180 cc         1 1GU      -0.038300
     18 C18          2.0620    -0.7190    -0.0070 ca         1 1GU      -0.189800
     19 C19          2.9660    -0.1350     0.9020 ca         1 1GU      -0.008000
     20 C20          4.3130    -0.5360     0.9170 ca         1 1GU      -0.251000
     21 C21          4.7620    -1.5190     0.0250 ca         1 1GU       0.192100
     22 O22          6.0660    -1.9080     0.0380 oh         1 1GU      -0.524100
     23 C23          3.8720    -2.1020    -0.8820 ca         1 1GU      -0.197000
     24 C24          2.5290    -1.7060    -0.8990 ca         1 1GU       0.210100
     25 O25          1.6840    -2.2640    -1.8090 oh         1 1GU      -0.528100
     26 H1           0.3350     5.9220     0.3880 ha         1 1GU       0.167000
     27 H2           2.0660     6.5220     0.0850 ha         1 1GU       0.167000
     28 H4           2.9260     4.2230     0.3060 ha         1 1GU       0.167000
     29 H6           1.3770     2.6980     1.5900 hc         1 1GU       0.063700
     30 H7          -0.0280     3.5100     0.9190 hc         1 1GU       0.063700
     31 H8           0.5640     2.7170    -1.3710 h1         1 1GU       0.075700
     32 H9           2.0120     1.9260    -0.7380 h1         1 1GU       0.075700
     33 H10         -4.0150    -2.6200     0.4840 ha         1 1GU       0.128000
     34 H11         -2.0310    -4.0690     0.7640 ha         1 1GU       0.121000
     35 H12          0.2780    -3.1120     0.5660 ha         1 1GU       0.126000
     36 H13          2.6240     0.6200     1.6050 ha         1 1GU       0.119000
     37 H14          4.9980    -0.0790     1.6270 ha         1 1GU       0.122000
     38 H15          6.5300    -1.3950     0.7320 ho         1 1GU       0.471000
     39 H16          4.2230    -2.8590    -1.5770 ha         1 1GU       0.150000
     40 H17          0.7960    -1.8820    -1.6400 ho         1 1GU       0.483000
@<TRIPOS>BOND
     1     1     2 2   
     2     1    26 1   
     3     1    27 1   
     4     2     3 1   
     5     2    28 1   
     6     3     4 1   
     7     3    29 1   
     8     3    30 1   
     9     4     5 1   
    10     4    31 1   
    11     4    32 1   
    12     5     6 1   
    13     5    17 1   
    14     6     7 2   
    15     7     8 ar  
    16     7    16 ar  
    17     8     9 1   
    18     8    13 ar  
    19     9    10 1   
    20     9    11 1   
    21     9    12 1   
    22    13    14 ar  
    23    13    33 1   
    24    14    15 ar  
    25    14    34 1   
    26    15    16 ar  
    27    15    35 1   
    28    16    17 2   
    29    17    18 1   
    30    18    19 ar  
    31    18    24 ar  
    32    19    20 ar  
    33    19    36 1   
    34    20    21 ar  
    35    20    37 1   
    36    21    22 1   
    37    21    23 ar  
    38    22    38 1   
    39    23    24 ar  
    40    23    39 1   
    41    24    25 1   
    42    25    40 1   
@<TRIPOS>SUBSTRUCTURE
     1 1GU         1 TEMP              0 ****  ****    0 ROOT
