@<TRIPOS>MOLECULE
1GV
   37    39     1     0     0
SMALL
abcg2


@<TRIPOS>ATOM
      1 C01         -5.4170     0.3210    -0.1360 ca         1 1GV       0.148100
      2 C02         -4.8500    -0.5520    -1.0580 ca         1 1GV      -0.181500
      3 C03         -3.4960    -0.8280    -0.9810 ca         1 1GV      -0.053000
      4 C04         -2.6800    -0.2610    -0.0020 ca         1 1GV      -0.054500
      5 C05         -3.2570     0.6130     0.9350 ca         1 1GV      -0.016300
      6 C06         -4.6160     0.8900     0.8500 ca         1 1GV      -0.181500
      7 C07         -1.2620    -0.6410     0.0200 cc         1 1GV      -0.150500
      8 S01          0.0130     0.5230    -0.0000 ss         1 1GV       0.205000
      9 C08          1.2420    -0.6890    -0.0760 cc         1 1GV      -0.150500
     10 C09          0.6710    -1.9330    -0.0820 cd         1 1GV      -0.131500
     11 C10         -0.7440    -1.9050    -0.0330 cd         1 1GV      -0.131500
     12 C11          2.6740    -0.3740    -0.0270 ca         1 1GV      -0.054500
     13 C12          3.4660    -1.0740     0.8890 ca         1 1GV      -0.053000
     14 C13          4.8280    -0.8680     0.9920 ca         1 1GV      -0.181500
     15 C14          5.4360     0.0700     0.1630 ca         1 1GV       0.148100
     16 C15          4.6630     0.7710    -0.7580 ca         1 1GV      -0.181500
     17 C16          3.2920     0.5630    -0.8700 ca         1 1GV      -0.016300
     18 O01          6.7630     0.2590     0.2860 oh         1 1GV      -0.532100
     19 O02         -6.7240     0.6460    -0.1470 oh         1 1GV      -0.532100
     20 C17          2.5270     1.3380    -1.9050 c3         1 1GV      -0.055300
     21 C18         -2.4580     1.2500     2.0350 c3         1 1GV      -0.055300
     22 H1          -5.4540    -1.0090    -1.8330 ha         1 1GV       0.122500
     23 H2          -3.0540    -1.4950    -1.7110 ha         1 1GV       0.118000
     24 H3          -5.0720     1.5560     1.5750 ha         1 1GV       0.120000
     25 H4           1.2550    -2.8420    -0.1230 ha         1 1GV       0.135000
     26 H5          -1.3650    -2.7910    -0.0330 ha         1 1GV       0.135000
     27 H6           2.9940    -1.7910     1.5490 ha         1 1GV       0.118000
     28 H7           5.4160    -1.4190     1.7150 ha         1 1GV       0.122500
     29 H8           5.1390     1.4900    -1.4170 ha         1 1GV       0.120000
     30 H9           7.0640     0.9410    -0.3250 ho         1 1GV       0.465000
     31 H10         -7.1730     0.2000    -0.8740 ho         1 1GV       0.465000
     32 H11          1.9560     2.1540    -1.4600 hc         1 1GV       0.048367
     33 H12          3.2040     1.7820    -2.6340 hc         1 1GV       0.048367
     34 H13          1.8210     0.7050    -2.4440 hc         1 1GV       0.048367
     35 H14         -1.8730     2.0970     1.6690 hc         1 1GV       0.048367
     36 H15         -3.1140     1.6290     2.8180 hc         1 1GV       0.048367
     37 H16         -1.7590     0.5500     2.4910 hc         1 1GV       0.048367
@<TRIPOS>BOND
     1     1     2 ar  
     2     1     6 ar  
     3     1    19 1   
     4     2     3 ar  
     5     2    22 1   
     6     3     4 ar  
     7     3    23 1   
     8     4     5 ar  
     9     4     7 1   
    10     5     6 ar  
    11     5    21 1   
    12     6    24 1   
    13     7     8 1   
    14     7    11 2   
    15     8     9 1   
    16     9    10 2   
    17     9    12 1   
    18    10    11 1   
    19    10    25 1   
    20    11    26 1   
    21    12    13 ar  
    22    12    17 ar  
    23    13    14 ar  
    24    13    27 1   
    25    14    15 ar  
    26    14    28 1   
    27    15    16 ar  
    28    15    18 1   
    29    16    17 ar  
    30    16    29 1   
    31    17    20 1   
    32    18    30 1   
    33    19    31 1   
    34    20    32 1   
    35    20    33 1   
    36    20    34 1   
    37    21    35 1   
    38    21    36 1   
    39    21    37 1   
@<TRIPOS>SUBSTRUCTURE
     1 1GV         1 TEMP              0 ****  ****    0 ROOT
