@<TRIPOS>MOLECULE
1GV
   37    39     1     0     0
SMALL
No Charge or Current Charge


@<TRIPOS>ATOM
      1 C01         -5.4780     0.2400    -0.1140 ca         1 1GV       0.148100
      2 C02         -4.8510    -0.5360    -1.0970 ca         1 1GV      -0.181500
      3 C03         -3.4640    -0.7510    -1.0390 ca         1 1GV      -0.053000
      4 C04         -2.6920    -0.1920     0.0010 ca         1 1GV      -0.054500
      5 C05         -3.3310     0.5850     1.0000 ca         1 1GV      -0.016300
      6 C06         -4.7230     0.7960     0.9280 ca         1 1GV      -0.181500
      7 C07         -1.2480    -0.4330     0.0120 cc         1 1GV      -0.150500
      8 S01          0.0210     0.7900     0.0550 ss         1 1GV       0.205000
      9 C08          1.2350    -0.4870    -0.0290 cc         1 1GV      -0.150500
     10 C09          0.6760    -1.7410    -0.0790 cd         1 1GV      -0.131500
     11 C10         -0.7460    -1.7100    -0.0670 cd         1 1GV      -0.131500
     12 C11          2.6880    -0.3130     0.0030 ca         1 1GV      -0.054500
     13 C12          3.4310    -1.0060     0.9800 ca         1 1GV      -0.053000
     14 C13          4.8260    -0.8590     1.0560 ca         1 1GV      -0.181500
     15 C14          5.4900    -0.0180     0.1560 ca         1 1GV       0.148100
     16 C15          4.7640     0.6730    -0.8260 ca         1 1GV      -0.181500
     17 C16          3.3640     0.5310    -0.9150 ca         1 1GV      -0.016300
     18 O01          6.8430     0.1200     0.2370 oh         1 1GV      -0.532100
     19 O02         -6.8220     0.4560    -0.1610 oh         1 1GV      -0.532100
     20 C17          2.6190     1.2780    -2.0170 c3         1 1GV      -0.055300
     21 C18         -2.5570     1.1850     2.1690 c3         1 1GV      -0.055300
     22 H1          -5.4270    -0.9720    -1.9090 ha         1 1GV       0.122500
     23 H2          -2.9830    -1.3470    -1.8110 ha         1 1GV       0.118000
     24 H3          -5.2240     1.3910     1.6870 ha         1 1GV       0.120000
     25 H4           1.2550    -2.6590    -0.1280 ha         1 1GV       0.135000
     26 H5          -1.3660    -2.6010    -0.1080 ha         1 1GV       0.135000
     27 H6           2.9230    -1.6540     1.6900 ha         1 1GV       0.118000
     28 H7           5.3880    -1.3950     1.8160 ha         1 1GV       0.122500
     29 H8           5.2850     1.3200    -1.5270 ha         1 1GV       0.120000
     30 H9           7.1340     0.7400    -0.4660 ho         1 1GV       0.465000
     31 H10         -7.1820    -0.0050    -0.9490 ho         1 1GV       0.465000
     32 H11          2.1350     2.1790    -1.6230 hc         1 1GV       0.048367
     33 H12          3.2960     1.5930    -2.8190 hc         1 1GV       0.048367
     34 H13          1.8480     0.6490    -2.4770 hc         1 1GV       0.048367
     35 H14         -2.0310     2.0980     1.8650 hc         1 1GV       0.048367
     36 H15         -3.2220     1.4500     2.9990 hc         1 1GV       0.048367
     37 H16         -1.8170     0.4800     2.5650 hc         1 1GV       0.048367
@<TRIPOS>BOND
     1     1     2 ar  
     2     1     6 ar  
     3     1    19 1   
     4     2     3 ar  
     5     2    22 1   
     6     3     4 ar  
     7     3    23 1   
     8     4     5 ar  
     9     4     7 1   
    10     5     6 ar  
    11     5    21 1   
    12     6    24 1   
    13     7     8 1   
    14     7    11 2   
    15     8     9 1   
    16     9    10 2   
    17     9    12 1   
    18    10    11 1   
    19    10    25 1   
    20    11    26 1   
    21    12    13 ar  
    22    12    17 ar  
    23    13    14 ar  
    24    13    27 1   
    25    14    15 ar  
    26    14    28 1   
    27    15    16 ar  
    28    15    18 1   
    29    16    17 ar  
    30    16    29 1   
    31    17    20 1   
    32    18    30 1   
    33    19    31 1   
    34    20    32 1   
    35    20    33 1   
    36    20    34 1   
    37    21    35 1   
    38    21    36 1   
    39    21    37 1   
@<TRIPOS>SUBSTRUCTURE
     1 1GV         1 TEMP              0 ****  ****    0 ROOT
