@<TRIPOS>MOLECULE
1GW
   67    70     1     0     0
SMALL
No Charge or Current Charge


@<TRIPOS>ATOM
      1 N1          -1.6630    -0.6050    -0.0370 n          1 1GW      -0.294000
      2 C2          -1.6410    -1.1660    -1.3270 c          1 1GW       0.670000
      3 O2          -1.4500    -2.3470    -1.5620 o          1 1GW      -0.590000
      4 N3          -1.8870    -0.3090    -2.3450 ns         1 1GW      -0.428500
      5 C4          -2.1560     1.0180    -2.2950 c          1 1GW       0.647200
      6 O4          -2.3400     1.6280    -3.3340 o          1 1GW      -0.569000
      7 C5          -2.1960     1.5890    -0.9180 cc         1 1GW      -0.218400
      8 C6          -1.9600     0.7430     0.1540 cd         1 1GW       0.069600
      9 C1           3.5420     0.6620    -0.0260 c6         1 1GW       0.429300
     10 O1A          4.6440    -3.6350     1.6520 o          1 1GW      -0.843000
     11 O1B          3.1970    -2.5010    -2.1590 o          1 1GW      -0.847500
     12 C1D         -1.2390    -1.4130     1.1390 c5         1 1GW       0.337700
     13 C7           2.7390     0.7760     1.3320 c6         1 1GW       0.107300
     14 O7           2.6560    -0.4470     2.1010 oh         1 1GW      -0.738000
     15 O2A          3.5130    -4.7640    -0.2460 o          1 1GW      -0.843000
     16 O2B          5.1220    -1.7310    -0.7820 o          1 1GW      -0.847500
     17 C2D         -2.3850    -2.4270     1.5170 c5         1 1GW       0.105300
     18 O2D         -2.8100    -2.3200     2.8810 oh         1 1GW      -0.734000
     19 C3           1.2980     1.2930     1.0500 c6         1 1GW       0.105300
     20 O3           0.6020     1.4670     2.2970 oh         1 1GW      -0.696000
     21 O3A          2.8920    -2.3070     0.3790 os         1 1GW      -0.737800
     22 O3B          3.0200    -0.3300    -0.9190 os         1 1GW      -0.630400
     23 C3D         -1.6530    -3.8000     1.3570 c5         1 1GW       0.088300
     24 O3D         -2.1920    -4.7720     2.2820 oh         1 1GW      -0.721000
     25 C8           1.3220     2.6250     0.2480 c6         1 1GW       0.145300
     26 O8           1.8310     3.6640     1.1040 oh         1 1GW      -0.722000
     27 C4D         -0.1740    -3.3900     1.6550 c5         1 1GW       0.154300
     28 O4D         -0.0490    -2.1790     0.8880 os         1 1GW      -0.409000
     29 C9           2.1760     2.4140    -1.0430 c6         1 1GW       0.179300
     30 O5           3.5110     1.9350    -0.7130 os         1 1GW      -0.438000
     31 C5D          0.8910    -4.4370     1.2290 c3         1 1GW       0.230600
     32 O5D          2.1670    -4.0800     1.7890 os         1 1GW      -0.590400
     33 C10          2.2980     3.7200    -1.8960 c3         1 1GW       0.172600
     34 O6           3.0420     3.5410    -3.1150 oh         1 1GW      -0.686000
     35 OAB         -2.9330     6.4380     2.4760 o          1 1GW      -0.561100
     36 CAP         -2.9050     5.2690    -0.9660 cd         1 1GW      -0.045000
     37 CAQ         -2.6950     3.9850    -1.5390 cd         1 1GW      -0.128000
     38 SAZ         -2.4910     3.6630     1.0300 ss         1 1GW       0.204000
     39 CBE         -2.8270     5.2660     0.4020 cc         1 1GW      -0.386600
     40 CBF         -2.4560     2.9910    -0.6110 cc         1 1GW      -0.055800
     41 HN3         -1.8680    -0.7150    -3.2650 hn         1 1GW       0.333500
     42 H6          -1.9550     1.0420     1.1970 h4         1 1GW       0.199000
     43 H1           4.5930     0.4350     0.2160 h2         1 1GW       0.112700
     44 H1D         -1.0580    -0.7220     1.9710 h2         1 1GW       0.072700
     45 HO2          2.6070    -1.2030     1.4360 ho         1 1GW       0.552000
     46 H2D         -3.2460    -2.3550     0.8360 h1         1 1GW       0.061700
     47 HO2D        -2.7890    -3.2750     3.1650 ho         1 1GW       0.521000
     48 HO3          0.9830     0.7690     2.8830 ho         1 1GW       0.460000
     49 H3D         -1.7430    -4.1540     0.3190 h1         1 1GW       0.088700
     50 HO3D        -2.0420    -5.6700     1.8980 ho         1 1GW       0.495000
     51 H4           0.2940     2.8680    -0.0550 h1         1 1GW       0.030700
     52 HO4          1.4610     3.4340     1.9900 ho         1 1GW       0.503000
     53 H4D         -0.0380    -3.1580     2.7200 h1         1 1GW       0.075700
     54 H5           1.6760     1.6640    -1.6730 h1         1 1GW       0.070700
     55 H5D          0.5880    -5.4230     1.6030 h1         1 1GW       0.036200
     56 H5DA         0.9190    -4.4900     0.1320 h1         1 1GW       0.036200
     57 H7           1.2830     4.0690    -2.1300 h1         1 1GW       0.012700
     58 H22          2.7760     4.4960    -1.2820 h1         1 1GW       0.012700
     59 H23          3.1330     4.4300    -3.5270 ho         1 1GW       0.474000
     60 HAP         -3.1050     6.1590    -1.5580 ha         1 1GW       0.123000
     61 HAQ         -2.7270     3.8450    -2.6120 ha         1 1GW       0.174000
     62 PB           3.6400    -1.8100    -0.9140 p5         1 1GW       1.490800
     63 H2           3.2560     1.5370     1.9340 h1         1 1GW       0.066700
     64 CBA         -3.0030     6.4560     1.2530 c          1 1GW       0.621500
     65 PA           3.4080    -3.7310     0.8240 p5         1 1GW       1.473800
     66 H3           0.7860     0.5390     0.4370 h1         1 1GW       0.044700
     67 HBA         -3.2100     7.4030     0.7070 h4         1 1GW      -0.025800
@<TRIPOS>BOND
     1     1     2 1   
     2     1     8 1   
     3     1    12 1   
     4     2     3 2   
     5     2     4 1   
     6     4     5 1   
     7     4    41 1   
     8     5     6 2   
     9     5     7 1   
    10     7     8 2   
    11     7    40 1   
    12     8    42 1   
    13     9    13 1   
    14     9    22 1   
    15     9    30 1   
    16     9    43 1   
    17    10    65 1   
    18    11    62 1   
    19    12    17 1   
    20    12    28 1   
    21    12    44 1   
    22    13    14 1   
    23    13    19 1   
    24    13    63 1   
    25    14    45 1   
    26    15    65 1   
    27    16    62 1   
    28    17    18 1   
    29    17    23 1   
    30    17    46 1   
    31    18    47 1   
    32    19    20 1   
    33    19    25 1   
    34    19    66 1   
    35    20    48 1   
    36    21    62 1   
    37    21    65 1   
    38    22    62 1   
    39    23    24 1   
    40    23    27 1   
    41    23    49 1   
    42    24    50 1   
    43    25    26 1   
    44    25    29 1   
    45    25    51 1   
    46    26    52 1   
    47    27    28 1   
    48    27    31 1   
    49    27    53 1   
    50    29    30 1   
    51    29    33 1   
    52    29    54 1   
    53    31    32 1   
    54    31    55 1   
    55    31    56 1   
    56    32    65 1   
    57    33    34 1   
    58    33    57 1   
    59    33    58 1   
    60    34    59 1   
    61    35    64 2   
    62    36    37 1   
    63    36    39 2   
    64    36    60 1   
    65    37    40 2   
    66    37    61 1   
    67    38    39 1   
    68    38    40 1   
    69    39    64 1   
    70    64    67 1   
@<TRIPOS>SUBSTRUCTURE
     1 1GW         1 TEMP              0 ****  ****    0 ROOT
