@<TRIPOS>MOLECULE
1GW
   67    70     1     0     0
SMALL
abcg2


@<TRIPOS>ATOM
      1 N1          -1.7600    -1.2480    -0.0300 n          1 1GW      -0.294000
      2 C2          -1.9960    -2.0500    -1.1290 c          1 1GW       0.670000
      3 O2          -2.0140    -3.2600    -1.0740 o          1 1GW      -0.590000
      4 N3          -2.2870    -1.3730    -2.2790 ns         1 1GW      -0.428500
      5 C4          -2.1210    -0.0290    -2.5330 c          1 1GW       0.647200
      6 O4          -2.2620     0.4100    -3.6580 o          1 1GW      -0.569000
      7 C5          -1.8310     0.7550    -1.3450 cc         1 1GW      -0.218400
      8 C6          -1.6600     0.0960    -0.1790 cd         1 1GW       0.069600
      9 C1           2.5870     1.0730     0.3740 c6         1 1GW       0.429300
     10 O1A          4.5120    -3.3600    -0.1480 o          1 1GW      -0.843000
     11 O1B          0.5970    -1.1860    -1.9960 o          1 1GW      -0.847500
     12 C1D         -1.3530    -1.8290     1.2530 c5         1 1GW       0.337700
     13 C7           2.1960     1.1320     1.8550 c6         1 1GW       0.107300
     14 O7           1.9190    -0.1370     2.3940 oh         1 1GW      -0.738000
     15 O2A          2.6720    -3.8220    -1.9420 o          1 1GW      -0.843000
     16 O2B          3.0240    -0.2950    -2.3120 o          1 1GW      -0.847500
     17 C2D         -2.2200    -2.9630     1.8160 c5         1 1GW       0.105300
     18 O2D         -2.3970    -2.7110     3.1860 oh         1 1GW      -0.734000
     19 C3           1.0330     2.1000     2.0580 c6         1 1GW       0.105300
     20 O3           0.7240     2.2710     3.4200 oh         1 1GW      -0.696000
     21 O3A          2.4980    -1.8260    -0.3420 os         1 1GW      -0.737800
     22 O3B          1.5540     0.4290    -0.3190 os         1 1GW      -0.630400
     23 C3D         -1.3490    -4.2210     1.6170 c5         1 1GW       0.088300
     24 O3D         -1.4270    -5.1040     2.7110 oh         1 1GW      -0.721000
     25 C8           1.3780     3.4640     1.4690 c6         1 1GW       0.145300
     26 O8           2.4420     4.0770     2.1560 oh         1 1GW      -0.722000
     27 C4D          0.0760    -3.6690     1.5140 c5         1 1GW       0.154300
     28 O4D         -0.0430    -2.2930     1.1800 os         1 1GW      -0.409000
     29 C9           1.7680     3.2730     0.0080 c6         1 1GW       0.179300
     30 O5           2.8340     2.3490    -0.1240 os         1 1GW      -0.438000
     31 C5D          0.8940    -4.4140     0.4790 c3         1 1GW       0.230600
     32 O5D          2.2730    -4.1380     0.5890 os         1 1GW      -0.590400
     33 C10          2.1930     4.5750    -0.6390 c3         1 1GW       0.172600
     34 O6           2.3280     4.3720    -2.0250 oh         1 1GW      -0.686000
     35 OAB         -1.9980     6.0920     0.8540 o          1 1GW      -0.561100
     36 CAP         -1.0520     4.3070    -2.1570 cd         1 1GW      -0.045000
     37 CAQ         -1.1280     2.9350    -2.4580 cd         1 1GW      -0.128000
     38 SAZ         -2.1240     3.2010    -0.1080 ss         1 1GW       0.204000
     39 CBE         -1.5420     4.6100    -0.9120 cc         1 1GW      -0.386600
     40 CBF         -1.6660     2.1950    -1.4310 cc         1 1GW      -0.055800
     41 HN3         -2.4720    -1.9600    -3.0840 hn         1 1GW       0.333500
     42 H6          -1.4200     0.6320     0.7280 h4         1 1GW       0.199000
     43 H1           3.5350     0.5340     0.2740 h2         1 1GW       0.112700
     44 H1D         -1.4100    -0.9900     1.9520 h2         1 1GW       0.072700
     45 HO2          1.4220    -0.6620     1.7520 ho         1 1GW       0.552000
     46 H2D         -3.1870    -3.0380     1.3080 h1         1 1GW       0.061700
     47 HO2D        -2.2280    -3.5470     3.6430 ho         1 1GW       0.521000
     48 HO3          0.6930     1.4010     3.8320 ho         1 1GW       0.460000
     49 H3D         -1.6360    -4.7240     0.6950 h1         1 1GW       0.088700
     50 HO3D        -2.1280    -5.7430     2.5450 ho         1 1GW       0.495000
     51 H4           0.4770     4.0960     1.4980 h1         1 1GW       0.030700
     52 HO4          2.2180     4.0950     3.0930 ho         1 1GW       0.503000
     53 H4D          0.5630    -3.7540     2.4930 h1         1 1GW       0.075700
     54 H5           0.8820     2.9060    -0.5260 h1         1 1GW       0.070700
     55 H5D          0.7490    -5.4850     0.6540 h1         1 1GW       0.036200
     56 H5DA         0.5060    -4.1890    -0.5180 h1         1 1GW       0.036200
     57 H7           1.4230     5.3250    -0.4160 h1         1 1GW       0.012700
     58 H22          3.1280     4.9290    -0.1890 h1         1 1GW       0.012700
     59 H23          2.5760     5.2110    -2.4230 ho         1 1GW       0.474000
     60 HAP         -0.6330     5.0510    -2.8210 ha         1 1GW       0.123000
     61 HAQ         -0.7650     2.5030    -3.3760 ha         1 1GW       0.174000
     62 PB           1.9050    -0.7500    -1.4290 p5         1 1GW       1.490800
     63 H2           3.0590     1.5180     2.4080 h1         1 1GW       0.066700
     64 CBA         -1.5860     5.9020    -0.2720 c          1 1GW       0.621500
     65 PA           3.0840    -3.3320    -0.5900 p5         1 1GW       1.473800
     66 H3           0.1570     1.7260     1.5080 h1         1 1GW       0.044700
     67 HBA         -1.2030     6.7260    -0.8970 h4         1 1GW      -0.025800
@<TRIPOS>BOND
     1     1     2 1   
     2     1     8 1   
     3     1    12 1   
     4     2     3 2   
     5     2     4 1   
     6     4     5 1   
     7     4    41 1   
     8     5     6 2   
     9     5     7 1   
    10     7     8 2   
    11     7    40 1   
    12     8    42 1   
    13     9    13 1   
    14     9    22 1   
    15     9    30 1   
    16     9    43 1   
    17    10    65 1   
    18    11    62 1   
    19    12    17 1   
    20    12    28 1   
    21    12    44 1   
    22    13    14 1   
    23    13    19 1   
    24    13    63 1   
    25    14    45 1   
    26    15    65 1   
    27    16    62 1   
    28    17    18 1   
    29    17    23 1   
    30    17    46 1   
    31    18    47 1   
    32    19    20 1   
    33    19    25 1   
    34    19    66 1   
    35    20    48 1   
    36    21    62 1   
    37    21    65 1   
    38    22    62 1   
    39    23    24 1   
    40    23    27 1   
    41    23    49 1   
    42    24    50 1   
    43    25    26 1   
    44    25    29 1   
    45    25    51 1   
    46    26    52 1   
    47    27    28 1   
    48    27    31 1   
    49    27    53 1   
    50    29    30 1   
    51    29    33 1   
    52    29    54 1   
    53    31    32 1   
    54    31    55 1   
    55    31    56 1   
    56    32    65 1   
    57    33    34 1   
    58    33    57 1   
    59    33    58 1   
    60    34    59 1   
    61    35    64 2   
    62    36    37 1   
    63    36    39 2   
    64    36    60 1   
    65    37    40 2   
    66    37    61 1   
    67    38    39 1   
    68    38    40 1   
    69    39    64 1   
    70    64    67 1   
@<TRIPOS>SUBSTRUCTURE
     1 1GW         1 TEMP              0 ****  ****    0 ROOT
