@<TRIPOS>MOLECULE
1H1
   22    21     1     0     0
SMALL
bcc


@<TRIPOS>ATOM
      1 O2           1.0710    -1.1520     1.1450 o          1 1H1      -0.527000
      2 C3           1.1540    -0.1230     0.5210 c          1 1H1       0.649100
      3 O1           2.2850     0.3480     0.0250 os         1 1H1      -0.428900
      4 C2           3.4910    -0.3970     0.2660 c3         1 1H1       0.144400
      5 C1           4.6250     0.3220    -0.4220 c3         1 1H1      -0.098100
      6 C4          -0.0100     0.7960     0.2520 c3         1 1H1      -0.181400
      7 C5          -1.3000     0.0200     0.0280 c3         1 1H1       0.161100
      8 O3          -1.2240    -0.8210    -1.0920 oh         1 1H1      -0.570800
      9 C6          -2.4770     0.9990    -0.0780 c3         1 1H1      -0.055300
     10 C7          -3.7230     0.2990    -0.3420 c1         1 1H1       0.211700
     11 N           -4.7080    -0.2570    -0.5530 n1         1 1H1      -0.355800
     12 H1           3.6670    -0.4670     1.3420 h1         1 1H1       0.051200
     13 H2           3.3790    -1.4110    -0.1220 h1         1 1H1       0.051200
     14 H3           4.4710     0.3770    -1.5000 hc         1 1H1       0.047367
     15 H4           4.7530     1.3330    -0.0350 hc         1 1H1       0.047367
     16 H5           5.5510    -0.2230    -0.2450 hc         1 1H1       0.047367
     17 H6          -0.1170     1.4480     1.1250 hc         1 1H1       0.076200
     18 H7           0.2000     1.4520    -0.5970 hc         1 1H1       0.076200
     19 H8          -1.4770    -0.6350     0.8830 h1         1 1H1       0.105700
     20 H9          -1.0400    -0.2890    -1.8740 ho         1 1H1       0.402000
     21 H10         -2.5890     1.5660     0.8490 hc         1 1H1       0.073200
     22 H11         -2.3160     1.7230    -0.8810 hc         1 1H1       0.073200
@<TRIPOS>BOND
     1     1     2 2   
     2     2     3 1   
     3     2     6 1   
     4     3     4 1   
     5     4     5 1   
     6     4    12 1   
     7     4    13 1   
     8     5    14 1   
     9     5    15 1   
    10     5    16 1   
    11     6     7 1   
    12     6    17 1   
    13     6    18 1   
    14     7     8 1   
    15     7     9 1   
    16     7    19 1   
    17     8    20 1   
    18     9    10 1   
    19     9    21 1   
    20     9    22 1   
    21    10    11 3   
@<TRIPOS>SUBSTRUCTURE
     1 1H1         1 TEMP              0 ****  ****    0 ROOT
