@<TRIPOS>MOLECULE
1H1
   22    21     1     0     0
SMALL
No Charge or Current Charge


@<TRIPOS>ATOM
      1 O2           1.2150    -0.7360     1.9110 o          1 1H1      -0.478000
      2 C3           1.1520     0.0360     0.9640 c          1 1H1       0.600100
      3 O1           2.1920     0.3090     0.1150 os         1 1H1      -0.452100
      4 C2           3.4210    -0.4120     0.3000 c3         1 1H1       0.167600
      5 C1           4.4060     0.0710    -0.7760 c3         1 1H1      -0.098100
      6 C4          -0.0690     0.9040     0.6660 c3         1 1H1      -0.181400
      7 C5          -1.1920     0.0800     0.0020 c3         1 1H1       0.184300
      8 O3          -0.7280    -0.4110    -1.2640 oh         1 1H1      -0.633000
      9 C6          -2.4850     0.9060    -0.1990 c3         1 1H1      -0.055300
     10 C7          -3.6160     0.1040    -0.6800 c1         1 1H1       0.300900
     11 N           -4.5340    -0.5160    -1.0420 n1         1 1H1      -0.445000
     12 H1           3.8430    -0.2200     1.2960 h1         1 1H1       0.051200
     13 H2           3.2620    -1.4930     0.1910 h1         1 1H1       0.051200
     14 H3           4.0090    -0.1250    -1.7790 hc         1 1H1       0.047367
     15 H4           4.5900     1.1480    -0.6760 hc         1 1H1       0.047367
     16 H5           5.3640    -0.4520    -0.6760 hc         1 1H1       0.047367
     17 H6          -0.4440     1.3060     1.6140 hc         1 1H1       0.076200
     18 H7           0.2130     1.7240    -0.0050 hc         1 1H1       0.076200
     19 H8          -1.4300    -0.7650     0.6690 h1         1 1H1       0.105700
     20 H9          -0.4180     0.3620    -1.7850 ho         1 1H1       0.441000
     21 H10         -2.7780     1.3630     0.7530 hc         1 1H1       0.073200
     22 H11         -2.3060     1.7260    -0.9040 hc         1 1H1       0.073200
@<TRIPOS>BOND
     1     1     2 2   
     2     2     3 1   
     3     2     6 1   
     4     3     4 1   
     5     4     5 1   
     6     4    12 1   
     7     4    13 1   
     8     5    14 1   
     9     5    15 1   
    10     5    16 1   
    11     6     7 1   
    12     6    17 1   
    13     6    18 1   
    14     7     8 1   
    15     7     9 1   
    16     7    19 1   
    17     8    20 1   
    18     9    10 1   
    19     9    21 1   
    20     9    22 1   
    21    10    11 3   
@<TRIPOS>SUBSTRUCTURE
     1 1H1         1 TEMP              0 ****  ****    0 ROOT
