@<TRIPOS>MOLECULE
1H2
   39    41     1     0     0
SMALL
bcc


@<TRIPOS>ATOM
      1 C4          -0.0670    -0.2940    -0.5060 ca         1 1H2      -0.151000
      2 C14          3.4780     1.5820     1.3750 ca         1 1H2      -0.131000
      3 C5           0.9500    -1.2220    -0.7210 ca         1 1H2      -0.081300
      4 C6           0.7540    -2.5470    -0.3710 ca         1 1H2      -0.150000
      5 C11          3.2240     1.5740    -1.3860 ca         1 1H2      -0.113500
      6 C7          -0.4520    -2.9410     0.2130 ca         1 1H2       0.139100
      7 C8          -1.4550    -2.0110     0.4460 ca         1 1H2      -0.215000
      8 C9           2.2410    -0.7500    -1.3630 c3         1 1H2       0.240700
      9 C10          2.7940     0.4710    -0.6570 ca         1 1H2      -0.126300
     10 C12          3.7730     2.6770    -0.7430 ca         1 1H2      -0.131000
     11 C13          3.9020     2.6820     0.6390 ca         1 1H2      -0.121000
     12 C3          -1.2640    -0.6760     0.0840 ca         1 1H2       0.043000
     13 O1           3.2140    -1.7620    -1.4650 oh         1 1H2      -0.580800
     14 C15          2.9260     0.4850     0.7310 ca         1 1H2      -0.113500
     15 O           -0.5810    -4.2420     0.5400 oh         1 1H2      -0.494100
     16 C2          -2.3060     0.3190     0.3450 cc         1 1H2      -0.316600
     17 C16         -2.1670     1.5500     0.9090 cd         1 1H2       0.316000
     18 C17         -1.0070     2.2860     1.4610 c3         1 1H2      -0.140400
     19 O2          -3.3590     2.1480     0.9530 os         1 1H2      -0.118100
     20 N           -4.3120     1.3310     0.4150 nd         1 1H2      -0.366300
     21 C1          -3.7020     0.2410     0.0560 cc         1 1H2       0.358600
     22 C           -4.4420    -0.8740    -0.5930 c3         1 1H2      -0.133400
     23 H1           0.0770     0.7370    -0.8060 ha         1 1H2       0.139000
     24 H3           1.5220    -3.2900    -0.5410 ha         1 1H2       0.156000
     25 H4           3.1240     1.5750    -2.4650 ha         1 1H2       0.134000
     26 H5          -2.3760    -2.3210     0.9290 ha         1 1H2       0.135000
     27 H6           2.0090    -0.4680    -2.3950 h1         1 1H2       0.086700
     28 H7           4.0990     3.5310    -1.3210 ha         1 1H2       0.133000
     29 H8           4.3270     3.5410     1.1410 ha         1 1H2       0.132000
     30 H9           3.5650    -1.9490    -0.5870 ho         1 1H2       0.408000
     31 H10          2.5800    -0.3580     1.3180 ha         1 1H2       0.134000
     32 H11         -1.4450    -4.4070     0.9320 ho         1 1H2       0.426000
     33 H12         -1.2390     2.7050     2.4410 hc         1 1H2       0.065700
     34 H13         -0.1510     1.6230     1.5640 hc         1 1H2       0.065700
     35 H14         -0.7140     3.1110     0.8090 hc         1 1H2       0.065700
     36 H15         -4.5090    -1.7390     0.0660 hc         1 1H2       0.057033
     37 H16         -5.4530    -0.5680    -0.8540 hc         1 1H2       0.057033
     38 H17         -3.9300    -1.1950    -1.5000 hc         1 1H2       0.057033
     39 H2           3.5730     1.5820     2.4530 ha         1 1H2       0.133000
@<TRIPOS>BOND
     1     1     3 ar  
     2     1    12 ar  
     3     1    23 1   
     4     2    11 ar  
     5     2    14 ar  
     6     2    39 1   
     7     3     4 ar  
     8     3     8 1   
     9     4     6 ar  
    10     4    24 1   
    11     5     9 ar  
    12     5    10 ar  
    13     5    25 1   
    14     6     7 ar  
    15     6    15 1   
    16     7    12 ar  
    17     7    26 1   
    18     8     9 1   
    19     8    13 1   
    20     8    27 1   
    21     9    14 ar  
    22    10    11 ar  
    23    10    28 1   
    24    11    29 1   
    25    12    16 1   
    26    13    30 1   
    27    14    31 1   
    28    15    32 1   
    29    16    17 2   
    30    16    21 1   
    31    17    18 1   
    32    17    19 1   
    33    18    33 1   
    34    18    34 1   
    35    18    35 1   
    36    19    20 1   
    37    20    21 2   
    38    21    22 1   
    39    22    36 1   
    40    22    37 1   
    41    22    38 1   
@<TRIPOS>SUBSTRUCTURE
     1 1H2         1 TEMP              0 ****  ****    0 ROOT
