@<TRIPOS>MOLECULE
1H2
   39    41     1     0     0
SMALL
No Charge or Current Charge


@<TRIPOS>ATOM
      1 C4           0.0120    -0.3290    -0.5010 ca         1 1H2      -0.133000
      2 C14          3.2650     1.8140     1.4050 ca         1 1H2      -0.113000
      3 C5           1.0190    -1.2840    -0.7590 ca         1 1H2      -0.081300
      4 C6           0.7130    -2.6490    -0.5730 ca         1 1H2      -0.132000
      5 C11          3.2460     1.5810    -1.3950 ca         1 1H2      -0.095500
      6 C7          -0.5550    -3.0360    -0.1200 ca         1 1H2       0.139100
      7 C8          -1.5350    -2.0720     0.1550 ca         1 1H2      -0.197000
      8 C9           2.3960    -0.8190    -1.2670 c3         1 1H2       0.263900
      9 C10          2.8530     0.4820    -0.6040 ca         1 1H2      -0.126300
     10 C12          3.6450     2.7860    -0.7910 ca         1 1H2      -0.113000
     11 C13          3.6530     2.9040     0.6090 ca         1 1H2      -0.103000
     12 C3          -1.2630    -0.7010    -0.0250 ca         1 1H2       0.043000
     13 O1           3.4050    -1.8110    -1.0500 oh         1 1H2      -0.643000
     14 C15          2.8680     0.6080     0.8030 ca         1 1H2      -0.095500
     15 O           -0.8280    -4.3590     0.0630 oh         1 1H2      -0.533100
     16 C2          -2.2840     0.3220     0.2630 cc         1 1H2      -0.186000
     17 C16         -1.9940     1.5220     0.8510 cd         1 1H2       0.206300
     18 C17         -0.7040     2.1400     1.3300 c3         1 1H2      -0.140400
     19 O2          -3.1570     2.1930     1.1270 os         1 1H2      -0.073700
     20 N           -4.2680     1.3670     0.7490 nd         1 1H2      -0.366300
     21 C1          -3.7010     0.2730     0.2710 cc         1 1H2       0.293300
     22 C           -4.5180    -0.8690    -0.2660 c3         1 1H2      -0.133400
     23 H1           0.2200     0.7160    -0.7030 ha         1 1H2       0.121000
     24 H3           1.4510    -3.4190    -0.7830 ha         1 1H2       0.138000
     25 H4           3.2400     1.5050    -2.4810 ha         1 1H2       0.116000
     26 H5          -2.4960    -2.3920     0.5420 ha         1 1H2       0.117000
     27 H6           2.2920    -0.6390    -2.3470 h1         1 1H2       0.086700
     28 H7           3.9450     3.6300    -1.4080 ha         1 1H2       0.115000
     29 H8           3.9600     3.8370     1.0760 ha         1 1H2       0.114000
     30 H9           3.5630    -1.8250    -0.0830 ho         1 1H2       0.447000
     31 H10          2.5590    -0.2250     1.4320 ha         1 1H2       0.116000
     32 H11         -1.7520    -4.4440     0.3820 ho         1 1H2       0.465000
     33 H12         -0.8910     2.8670     2.1280 hc         1 1H2       0.065700
     34 H13         -0.0240     1.3810     1.7330 hc         1 1H2       0.065700
     35 H14         -0.1920     2.6660     0.5170 hc         1 1H2       0.065700
     36 H15         -4.7140    -1.6110     0.5170 hc         1 1H2       0.057033
     37 H16         -5.4870    -0.5150    -0.6390 hc         1 1H2       0.057033
     38 H17         -4.0080    -1.3650    -1.0990 hc         1 1H2       0.057033
     39 H2           3.2690     1.9040     2.4890 ha         1 1H2       0.115000
@<TRIPOS>BOND
     1     1     3 ar  
     2     1    12 ar  
     3     1    23 1   
     4     2    11 ar  
     5     2    14 ar  
     6     2    39 1   
     7     3     4 ar  
     8     3     8 1   
     9     4     6 ar  
    10     4    24 1   
    11     5     9 ar  
    12     5    10 ar  
    13     5    25 1   
    14     6     7 ar  
    15     6    15 1   
    16     7    12 ar  
    17     7    26 1   
    18     8     9 1   
    19     8    13 1   
    20     8    27 1   
    21     9    14 ar  
    22    10    11 ar  
    23    10    28 1   
    24    11    29 1   
    25    12    16 1   
    26    13    30 1   
    27    14    31 1   
    28    15    32 1   
    29    16    17 2   
    30    16    21 1   
    31    17    18 1   
    32    17    19 1   
    33    18    33 1   
    34    18    34 1   
    35    18    35 1   
    36    19    20 1   
    37    20    21 2   
    38    21    22 1   
    39    22    36 1   
    40    22    37 1   
    41    22    38 1   
@<TRIPOS>SUBSTRUCTURE
     1 1H2         1 TEMP              0 ****  ****    0 ROOT
