@<TRIPOS>MOLECULE
1H3
   39    41     1     0     0
SMALL
No Charge or Current Charge


@<TRIPOS>ATOM
      1 C4          -0.0930    -0.3500     0.3780 ca         1 1H3      -0.134000
      2 C14          3.5220     1.8060    -1.0040 ca         1 1H3      -0.110500
      3 C5           0.8910    -1.3480     0.5510 ca         1 1H3      -0.075300
      4 C6           0.6300    -2.6460     0.0570 ca         1 1H3      -0.194000
      5 C11          3.1490     1.3280     1.7400 ca         1 1H3      -0.094500
      6 C7          -0.5730    -2.9180    -0.6080 ca         1 1H3       0.139100
      7 C8          -1.5300    -1.9110    -0.7840 ca         1 1H3      -0.136000
      8 C9           2.1990    -0.9920     1.2860 c3         1 1H3       0.262900
      9 C10          2.7930     0.3330     0.8060 ca         1 1H3      -0.126300
     10 C12          3.6870     2.5520     1.3050 ca         1 1H3      -0.110500
     11 C13          3.8740     2.7910    -0.0670 ca         1 1H3      -0.101000
     12 C3          -1.3110    -0.6120    -0.2860 ca         1 1H3       0.039000
     13 O1           3.1960    -2.0090     1.1390 oh         1 1H3      -0.646000
     14 C15          2.9850     0.5810    -0.5700 ca         1 1H3      -0.094500
     15 O           -0.8220    -4.1720    -1.0800 oh         1 1H3      -0.534100
     16 C2          -2.3180     0.4500    -0.4680 cc         1 1H3      -0.184000
     17 C16         -2.6060     1.3850     0.4880 cd         1 1H3       0.205300
     18 C17         -2.0590     1.6350     1.8700 c3         1 1H3      -0.139400
     19 O2          -3.6790     2.1390     0.0880 os         1 1H3      -0.072700
     20 N           -4.1500     1.6390    -1.1710 nd         1 1H3      -0.367300
     21 C1          -3.3330     0.6360    -1.4400 cc         1 1H3       0.295300
     22 C           -3.4610    -0.1670    -2.7050 c3         1 1H3      -0.134400
     23 H1           0.1180     0.6530     0.7340 ha         1 1H3       0.122000
     24 H3           1.3550    -3.4440     0.1920 ha         1 1H3       0.123000
     25 H4           3.0090     1.1550     2.8050 ha         1 1H3       0.114500
     26 H5          -2.4620    -2.1660    -1.2750 ha         1 1H3       0.132000
     27 H6           1.9440    -0.8890     2.3510 h1         1 1H3       0.083700
     28 H7           3.9590     3.3140     2.0320 ha         1 1H3       0.115000
     29 H8           4.2900     3.7390    -0.4020 ha         1 1H3       0.115000
     30 H9           3.4780    -1.9720     0.2010 ho         1 1H3       0.445000
     31 H10          2.7110    -0.1710    -1.3070 ha         1 1H3       0.114500
     32 H11         -0.0540    -4.7430    -0.8650 ho         1 1H3       0.466000
     33 H12         -2.8020     2.1370     2.5000 hc         1 1H3       0.064700
     34 H13         -1.7880     0.6970     2.3680 hc         1 1H3       0.064700
     35 H14         -1.1720     2.2780     1.8310 hc         1 1H3       0.064700
     36 H15         -4.0880    -1.0510    -2.5450 hc         1 1H3       0.057700
     37 H16         -3.9240     0.4290    -3.5010 hc         1 1H3       0.057700
     38 H17         -2.4800    -0.4930    -3.0700 hc         1 1H3       0.057700
     39 H2           3.6650     1.9910    -2.0660 ha         1 1H3       0.115000
@<TRIPOS>BOND
     1     1     3 ar  
     2     1    12 ar  
     3     1    23 1   
     4     2    11 ar  
     5     2    14 ar  
     6     2    39 1   
     7     3     4 ar  
     8     3     8 1   
     9     4     6 ar  
    10     4    24 1   
    11     5     9 ar  
    12     5    10 ar  
    13     5    25 1   
    14     6     7 ar  
    15     6    15 1   
    16     7    12 ar  
    17     7    26 1   
    18     8     9 1   
    19     8    13 1   
    20     8    27 1   
    21     9    14 ar  
    22    10    11 ar  
    23    10    28 1   
    24    11    29 1   
    25    12    16 1   
    26    13    30 1   
    27    14    31 1   
    28    15    32 1   
    29    16    17 2   
    30    16    21 1   
    31    17    18 1   
    32    17    19 1   
    33    18    33 1   
    34    18    34 1   
    35    18    35 1   
    36    19    20 1   
    37    20    21 2   
    38    21    22 1   
    39    22    36 1   
    40    22    37 1   
    41    22    38 1   
@<TRIPOS>SUBSTRUCTURE
     1 1H3         1 TEMP              0 ****  ****    0 ROOT
