@<TRIPOS>MOLECULE
1H3
   39    41     1     0     0
SMALL
bcc


@<TRIPOS>ATOM
      1 C4          -0.1120    -0.3370     0.4220 ca         1 1H3      -0.152000
      2 C14          3.5500     1.6840    -1.1470 ca         1 1H3      -0.128500
      3 C5           0.8820    -1.3010     0.5560 ca         1 1H3      -0.075300
      4 C6           0.6560    -2.5870     0.0870 ca         1 1H3      -0.212000
      5 C11          3.1600     1.3690     1.5780 ca         1 1H3      -0.112500
      6 C7          -0.5580    -2.9040    -0.5210 ca         1 1H3       0.139100
      7 C8          -1.5520    -1.9420    -0.6440 ca         1 1H3      -0.154000
      8 C9           2.1820    -0.9310     1.2490 c3         1 1H3       0.239700
      9 C10          2.7640     0.3580     0.7100 ca         1 1H3      -0.126300
     10 C12          3.7440     2.5320     1.0920 ca         1 1H3      -0.128500
     11 C13          3.9430     2.6900    -0.2720 ca         1 1H3      -0.119000
     12 C3          -1.3320    -0.6510    -0.1700 ca         1 1H3       0.039000
     13 O1           3.1350    -1.9670     1.2290 oh         1 1H3      -0.583800
     14 C15          2.9620     0.5270    -0.6590 ca         1 1H3      -0.112500
     15 O           -0.8240    -4.1370    -0.9940 oh         1 1H3      -0.495100
     16 C2          -2.3750     0.3710    -0.2900 cc         1 1H3      -0.314600
     17 C16         -2.8010     1.2500     0.6570 cd         1 1H3       0.315000
     18 C17         -2.4340     1.4670     2.0750 c3         1 1H3      -0.139400
     19 O2          -3.7470     2.0320     0.1340 os         1 1H3      -0.117100
     20 N           -3.9660     1.6920    -1.1700 nd         1 1H3      -0.367300
     21 C1          -3.1630     0.7040    -1.4330 cc         1 1H3       0.360600
     22 C           -3.1320     0.0860    -2.7840 c3         1 1H3      -0.134400
     23 H1           0.0750     0.6770     0.7570 ha         1 1H3       0.140000
     24 H3           1.4190    -3.3500     0.1910 ha         1 1H3       0.141000
     25 H4           3.0060     1.2490     2.6440 ha         1 1H3       0.132500
     26 H5          -2.5000    -2.2150    -1.0910 ha         1 1H3       0.150000
     27 H6           1.9480    -0.7790     2.3080 h1         1 1H3       0.083700
     28 H7           4.0430     3.3130     1.7790 ha         1 1H3       0.133000
     29 H8           4.3960     3.5950    -0.6540 ha         1 1H3       0.133000
     30 H9           3.4960    -2.0460     0.3390 ho         1 1H3       0.406000
     31 H10          2.6420    -0.2400    -1.3560 ha         1 1H3       0.132500
     32 H11         -0.0810    -4.7280    -0.8330 ho         1 1H3       0.427000
     33 H12         -3.3080     1.7310     2.6700 hc         1 1H3       0.064700
     34 H13         -1.9940     0.5640     2.4920 hc         1 1H3       0.064700
     35 H14         -1.7050     2.2720     2.1780 hc         1 1H3       0.064700
     36 H15         -3.5590    -0.9170    -2.7670 hc         1 1H3       0.057700
     37 H16         -3.7010     0.6810    -3.4960 hc         1 1H3       0.057700
     38 H17         -2.1070    -0.0040    -3.1440 hc         1 1H3       0.057700
     39 H2           3.6980     1.8050    -2.2130 ha         1 1H3       0.133000
@<TRIPOS>BOND
     1     1     3 ar  
     2     1    12 ar  
     3     1    23 1   
     4     2    11 ar  
     5     2    14 ar  
     6     2    39 1   
     7     3     4 ar  
     8     3     8 1   
     9     4     6 ar  
    10     4    24 1   
    11     5     9 ar  
    12     5    10 ar  
    13     5    25 1   
    14     6     7 ar  
    15     6    15 1   
    16     7    12 ar  
    17     7    26 1   
    18     8     9 1   
    19     8    13 1   
    20     8    27 1   
    21     9    14 ar  
    22    10    11 ar  
    23    10    28 1   
    24    11    29 1   
    25    12    16 1   
    26    13    30 1   
    27    14    31 1   
    28    15    32 1   
    29    16    17 2   
    30    16    21 1   
    31    17    18 1   
    32    17    19 1   
    33    18    33 1   
    34    18    34 1   
    35    18    35 1   
    36    19    20 1   
    37    20    21 2   
    38    21    22 1   
    39    22    36 1   
    40    22    37 1   
    41    22    38 1   
@<TRIPOS>SUBSTRUCTURE
     1 1H3         1 TEMP              0 ****  ****    0 ROOT
