@<TRIPOS>MOLECULE
1H4
   65    69     1     0     0
SMALL
No Charge or Current Charge


@<TRIPOS>ATOM
      1 C14         -2.3280     4.6520    -1.3370 cx         1 1H4      -0.129900
      2 C11          1.0230     3.8400    -0.0650 ca         1 1H4       0.174900
      3 C10          1.5170     1.6400     0.3150 ca         1 1H4       0.423900
      4 C12         -0.3510     3.5440     0.0030 ca         1 1H4      -0.276300
      5 C13         -1.3830     4.6300    -0.1570 cx         1 1H4      -0.065400
      6 C01         -9.2410    -2.8290     0.5610 cy         1 1H4      -0.074400
      7 C02         -9.9670    -2.0080    -0.5640 cy         1 1H4      -0.091400
      8 C03         -8.6110    -1.2310    -0.7240 cy         1 1H4      -0.074400
      9 C04         -8.4830    -1.4690     0.8310 cy         1 1H4      -0.176700
     10 C05         -6.9780    -1.9770     0.8170 c          1 1H4       0.612100
     11 O01         -6.4580    -3.0840     0.8950 o          1 1H4      -0.603100
     12 N01         -6.1520    -0.8740     0.7610 ns         1 1H4      -0.507900
     13 C06         -4.6890    -0.9230     0.7430 c3         1 1H4       0.103000
     14 C07         -4.0810     0.4770     0.5470 c3         1 1H4      -0.118400
     15 C08         -2.5420     0.4510     0.5220 c3         1 1H4       0.235800
     16 C09         -0.6890     2.2000     0.2430 ca         1 1H4       0.430900
     17 N03          0.2410     1.2450     0.3920 nb         1 1H4      -0.331000
     18 N04          1.9600     2.8880     0.0840 nb         1 1H4      -0.267000
     19 C15         -1.2510     5.7010    -1.2150 cx         1 1H4      -0.129900
     20 N05          2.4380     0.6140     0.4430 nu         1 1H4      -0.930900
     21 C16          3.8310     0.5450     0.5310 ca         1 1H4       0.345000
     22 C17          4.4660    -0.6400     0.1220 ca         1 1H4      -0.187000
     23 C18          5.8640    -0.8060     0.2370 ca         1 1H4       0.010000
     24 C19          6.6250     0.3000     0.6730 ca         1 1H4      -0.188000
     25 C20          6.0020     1.4830     1.0980 ca         1 1H4      -0.066000
     26 C21          4.6060     1.6000     1.0410 ca         1 1H4      -0.157000
     27 N            6.5640    -1.9380    -0.3280 n          1 1H4      -0.234400
     28 C22          7.8320    -2.4180     0.2720 c5         1 1H4       0.097000
     29 C23          7.8860    -3.8950    -0.2210 c5         1 1H4      -0.092400
     30 C24          7.2720    -3.7330    -1.6320 c5         1 1H4      -0.169400
     31 C            6.1290    -2.7480    -1.3980 c          1 1H4       0.567000
     32 O            5.0150    -2.7620    -1.9050 o          1 1H4      -0.530000
     33 H1          -2.2050     3.8900    -2.1040 hc         1 1H4       0.073200
     34 H2          -3.3560     4.9570    -1.1590 hc         1 1H4       0.073200
     35 H3           1.3800     4.8540    -0.2410 h4         1 1H4       0.019100
     36 H4          -1.7930     4.9480     0.8000 hc         1 1H4       0.078700
     37 H6          -8.6880    -3.6880     0.1610 hc         1 1H4       0.060700
     38 H7         -10.2960    -2.5810    -1.4380 hc         1 1H4       0.051200
     39 H8         -10.8070    -1.3950    -0.2140 hc         1 1H4       0.051200
     40 H9          -7.8940    -1.7360    -1.3870 hc         1 1H4       0.060700
     41 H10         -8.7000    -0.1870    -1.0430 hc         1 1H4       0.060700
     42 H11         -8.8280    -0.7340     1.5670 hc         1 1H4       0.055700
     43 H12         -6.6090     0.0290     0.7180 hn         1 1H4       0.308500
     44 H13         -4.3370    -1.3500     1.6920 h1         1 1H4       0.060200
     45 H14         -4.3650    -1.5820    -0.0740 h1         1 1H4       0.060200
     46 H15         -4.4520     0.9010    -0.3940 hc         1 1H4       0.048200
     47 H16         -4.4190     1.1330     1.3590 hc         1 1H4       0.048200
     48 H17         -2.1690     0.0300     1.4670 h1         1 1H4       0.057700
     49 H18         -2.2030    -0.2020    -0.2950 h1         1 1H4       0.057700
     50 H20         -0.4130     5.6430    -1.9060 hc         1 1H4       0.073200
     51 H21         -1.5540     6.7120    -0.9520 hc         1 1H4       0.073200
     52 H22          1.9900    -0.2980     0.3830 hn         1 1H4       0.511000
     53 H23          3.8470    -1.4460    -0.2530 ha         1 1H4       0.135000
     54 H24          7.7100     0.2480     0.6950 ha         1 1H4       0.112000
     55 H25          6.6020     2.3130     1.4660 ha         1 1H4       0.111000
     56 H26          4.1370     2.5110     1.3950 ha         1 1H4       0.153000
     57 H27          8.6820    -1.8360    -0.1090 h1         1 1H4       0.052200
     58 H28          8.9030    -4.3040    -0.2330 hc         1 1H4       0.059200
     59 H29          8.0090    -3.2450    -2.2790 hc         1 1H4       0.078700
     60 H30          6.9220    -4.6550    -2.1090 hc         1 1H4       0.078700
     61 H31          7.8250    -2.3500     1.3680 h1         1 1H4       0.052200
     62 H32          7.2690    -4.5460     0.4100 hc         1 1H4       0.059200
     63 N02         -2.0170     1.8100     0.3330 nu         1 1H4      -0.931100
     64 H5          -9.8840    -3.1840     1.3740 hc         1 1H4       0.060700
     65 H19         -2.6880     2.5590     0.1770 hn         1 1H4       0.501000
@<TRIPOS>BOND
     1     1     5 1   
     2     1    19 1   
     3     1    33 1   
     4     1    34 1   
     5     2     4 ar  
     6     2    18 ar  
     7     2    35 1   
     8     3    17 ar  
     9     3    18 ar  
    10     3    20 1   
    11     4     5 1   
    12     4    16 ar  
    13     5    19 1   
    14     5    36 1   
    15     6     7 1   
    16     6     9 1   
    17     6    37 1   
    18     6    64 1   
    19     7     8 1   
    20     7    38 1   
    21     7    39 1   
    22     8     9 1   
    23     8    40 1   
    24     8    41 1   
    25     9    10 1   
    26     9    42 1   
    27    10    11 2   
    28    10    12 1   
    29    12    13 1   
    30    12    43 1   
    31    13    14 1   
    32    13    44 1   
    33    13    45 1   
    34    14    15 1   
    35    14    46 1   
    36    14    47 1   
    37    15    48 1   
    38    15    49 1   
    39    15    63 1   
    40    16    17 ar  
    41    16    63 1   
    42    19    50 1   
    43    19    51 1   
    44    20    21 1   
    45    20    52 1   
    46    21    22 ar  
    47    21    26 ar  
    48    22    23 ar  
    49    22    53 1   
    50    23    24 ar  
    51    23    27 1   
    52    24    25 ar  
    53    24    54 1   
    54    25    26 ar  
    55    25    55 1   
    56    26    56 1   
    57    27    28 1   
    58    27    31 1   
    59    28    29 1   
    60    28    57 1   
    61    28    61 1   
    62    29    30 1   
    63    29    58 1   
    64    29    62 1   
    65    30    31 1   
    66    30    59 1   
    67    30    60 1   
    68    31    32 2   
    69    63    65 1   
@<TRIPOS>SUBSTRUCTURE
     1 1H4         1 TEMP              0 ****  ****    0 ROOT
