@<TRIPOS>MOLECULE
1H4
   65    69     1     0     0
SMALL
bcc


@<TRIPOS>ATOM
      1 C14         -2.1740     5.0560    -0.9410 cx         1 1H4      -0.129900
      2 C11          1.0320     3.9480     0.2410 ca         1 1H4       0.503200
      3 C10          1.5320     1.7560     0.2010 ca         1 1H4       0.949900
      4 C12         -0.3150     3.7050     0.2480 ca         1 1H4      -0.406900
      5 C13         -1.3460     4.7690     0.2870 cx         1 1H4      -0.065400
      6 C01         -8.8250    -2.9830     0.6810 cy         1 1H4      -0.074400
      7 C02        -10.0890    -2.5160    -0.0650 cy         1 1H4      -0.091400
      8 C03         -9.2000    -1.5440    -0.8610 cy         1 1H4      -0.074400
      9 C04         -8.1350    -1.6680     0.2480 cy         1 1H4      -0.176700
     10 C05         -6.6920    -1.7520    -0.1770 c          1 1H4       0.679100
     11 O01         -6.3340    -2.4880    -1.0900 o          1 1H4      -0.603100
     12 N01         -5.8440    -0.9720     0.5130 ns         1 1H4      -0.574900
     13 C06         -4.4180    -0.9120     0.2930 c3         1 1H4       0.103000
     14 C07         -3.9110     0.5190     0.3850 c3         1 1H4      -0.118400
     15 C08         -2.4070     0.5860     0.1760 c3         1 1H4       0.235800
     16 C09         -0.6710     2.3270     0.2340 ca         1 1H4       0.759200
     17 N03          0.2520     1.3750     0.2050 nb         1 1H4      -0.857000
     18 N04          1.9790     3.0000     0.2180 nb         1 1H4      -0.793000
     19 C15         -1.1530     6.0430    -0.4730 cx         1 1H4      -0.129900
     20 N05          2.4080     0.7070     0.1720 nu         1 1H4      -0.737300
     21 C16          3.7950     0.6590     0.1370 ca         1 1H4       0.206600
     22 C17          4.3570    -0.6190     0.0400 ca         1 1H4      -0.205000
     23 C18          5.7350    -0.7960    -0.0020 ca         1 1H4       0.102600
     24 C19          6.5720     0.3200     0.0730 ca         1 1H4      -0.206000
     25 C20          6.0080     1.5790     0.1780 ca         1 1H4      -0.084000
     26 C21          4.6350     1.7730     0.2060 ca         1 1H4      -0.175000
     27 N            6.3050    -2.0750    -0.0930 n          1 1H4      -0.394000
     28 C22          7.6640    -2.3330     0.3750 c5         1 1H4       0.097000
     29 C23          7.7560    -3.8550     0.3560 c5         1 1H4      -0.092400
     30 C24          6.8080    -4.2450    -0.7680 c5         1 1H4      -0.169400
     31 C            5.7900    -3.1280    -0.7960 c          1 1H4       0.709500
     32 O            4.7190    -3.1510    -1.3690 o          1 1H4      -0.605500
     33 H1          -1.9520     4.4920    -1.8390 hc         1 1H4       0.073200
     34 H2          -3.2220     5.2910    -0.8030 hc         1 1H4       0.073200
     35 H3           1.3910     4.9730     0.2520 h4         1 1H4       0.019100
     36 H4          -1.8800     4.8590     1.2300 hc         1 1H4       0.078700
     37 H6          -8.3710    -3.8460     0.1940 hc         1 1H4       0.060700
     38 H7         -10.6500    -3.2630    -0.6260 hc         1 1H4       0.051200
     39 H8         -10.7770    -1.9880     0.5970 hc         1 1H4       0.051200
     40 H9          -8.8500    -1.9940    -1.7900 hc         1 1H4       0.060700
     41 H10         -9.5830    -0.5460    -1.0730 hc         1 1H4       0.060700
     42 H11         -8.2840    -0.8970     1.0080 hc         1 1H4       0.055700
     43 H12         -6.2140    -0.4390     1.2840 hn         1 1H4       0.308500
     44 H13         -3.8940    -1.5400     1.0210 h1         1 1H4       0.060200
     45 H14         -4.2070    -1.3230    -0.6940 h1         1 1H4       0.060200
     46 H15         -4.4200     1.1300    -0.3680 hc         1 1H4       0.048200
     47 H16         -4.1590     0.9400     1.3640 hc         1 1H4       0.048200
     48 H17         -1.8970    -0.0090     0.9360 h1         1 1H4       0.057700
     49 H18         -2.1440     0.1500    -0.7940 h1         1 1H4       0.057700
     50 H20         -0.2520     6.1500    -1.0630 hc         1 1H4       0.073200
     51 H21         -1.4960     6.9620    -0.0160 hc         1 1H4       0.073200
     52 H22          1.9450    -0.1880     0.1400 hn         1 1H4       0.455800
     53 H23          3.6980    -1.4750     0.0100 ha         1 1H4       0.153000
     54 H24          7.6470     0.2150     0.0440 ha         1 1H4       0.130000
     55 H25          6.6590     2.4420     0.2350 ha         1 1H4       0.129000
     56 H26          4.2250     2.7660     0.2840 ha         1 1H4       0.171000
     57 H27          8.3990    -1.8800    -0.2970 h1         1 1H4       0.052200
     58 H28          8.7770    -4.1970     0.2010 hc         1 1H4       0.059200
     59 H29          7.3160    -4.2610    -1.7370 hc         1 1H4       0.078700
     60 H30          6.3250    -5.2120    -0.6370 hc         1 1H4       0.078700
     61 H31          7.8120    -1.9110     1.3690 h1         1 1H4       0.052200
     62 H32          7.4040    -4.2610     1.3060 hc         1 1H4       0.059200
     63 N02         -1.9600     1.9580     0.2550 nu         1 1H4      -0.875900
     64 H5          -8.8970    -3.1770     1.7500 hc         1 1H4       0.060700
     65 H19         -2.6520     2.6860     0.1830 hn         1 1H4       0.445800
@<TRIPOS>BOND
     1     1     5 1   
     2     1    19 1   
     3     1    33 1   
     4     1    34 1   
     5     2     4 ar  
     6     2    18 ar  
     7     2    35 1   
     8     3    17 ar  
     9     3    18 ar  
    10     3    20 1   
    11     4     5 1   
    12     4    16 ar  
    13     5    19 1   
    14     5    36 1   
    15     6     7 1   
    16     6     9 1   
    17     6    37 1   
    18     6    64 1   
    19     7     8 1   
    20     7    38 1   
    21     7    39 1   
    22     8     9 1   
    23     8    40 1   
    24     8    41 1   
    25     9    10 1   
    26     9    42 1   
    27    10    11 2   
    28    10    12 1   
    29    12    13 1   
    30    12    43 1   
    31    13    14 1   
    32    13    44 1   
    33    13    45 1   
    34    14    15 1   
    35    14    46 1   
    36    14    47 1   
    37    15    48 1   
    38    15    49 1   
    39    15    63 1   
    40    16    17 ar  
    41    16    63 1   
    42    19    50 1   
    43    19    51 1   
    44    20    21 1   
    45    20    52 1   
    46    21    22 ar  
    47    21    26 ar  
    48    22    23 ar  
    49    22    53 1   
    50    23    24 ar  
    51    23    27 1   
    52    24    25 ar  
    53    24    54 1   
    54    25    26 ar  
    55    25    55 1   
    56    26    56 1   
    57    27    28 1   
    58    27    31 1   
    59    28    29 1   
    60    28    57 1   
    61    28    61 1   
    62    29    30 1   
    63    29    58 1   
    64    29    62 1   
    65    30    31 1   
    66    30    59 1   
    67    30    60 1   
    68    31    32 2   
    69    63    65 1   
@<TRIPOS>SUBSTRUCTURE
     1 1H4         1 TEMP              0 ****  ****    0 ROOT
