@<TRIPOS>MOLECULE
1H5
   42    44     1     0     0
SMALL
abcg2


@<TRIPOS>ATOM
      1 C2          -0.1210     2.5260     0.7500 ca         1 1H5      -0.101000
      2 C3          -1.4660     2.8480     0.8090 ca         1 1H5      -0.133000
      3 C4          -2.4280     1.9480     0.3970 ca         1 1H5       0.158000
      4 C5          -2.1030     0.6790    -0.0750 ca         1 1H5      -0.111300
      5 C6          -0.7470     0.3780    -0.1270 ca         1 1H5      -0.118000
      6 C8          -3.1080    -0.3480    -0.6100 c6         1 1H5       0.174500
      7 C9          -3.5160     0.0590    -2.0290 c3         1 1H5       0.207600
      8 C10         -4.3170    -0.5070     0.3200 c6         1 1H5       0.136300
      9 C11         -3.8720    -1.1630     1.5990 c6         1 1H5       0.141600
     10 C13         -2.5380    -2.4870     0.1610 c2         1 1H5       0.833500
     11 N14         -2.4790    -1.6370    -0.7840 n2         1 1H5      -0.773900
     12 C1           0.2450     1.2700     0.2710 ca         1 1H5      -0.038000
     13 F7          -3.7080     2.3450     0.4900 f          1 1H5      -0.177000
     14 O12         -3.1370    -2.3570     1.3470 os         1 1H5      -0.473600
     15 F15         -5.2300    -1.3520    -0.3020 f          1 1H5      -0.255000
     16 N16         -1.9090    -3.6900     0.0660 nv         1 1H5      -1.014200
     17 N17          1.5640     0.8290     0.1530 ns         1 1H5      -0.125000
     18 C18          2.7070     1.4630     0.4840 c          1 1H5       0.515600
     19 C19          3.9350     0.6400     0.1940 ca         1 1H5       0.300500
     20 O20          2.8050     2.5730     0.9650 o          1 1H5      -0.576100
     21 N21          3.7580    -0.5690    -0.3260 nb         1 1H5      -0.679000
     22 C22          4.8120    -1.3130    -0.5880 ca         1 1H5       0.379900
     23 C23          6.1130    -0.8770    -0.3390 ca         1 1H5      -0.050000
     24 C24          6.2990     0.3910     0.2040 ca         1 1H5      -0.043000
     25 C25          5.1880     1.1650     0.4770 ca         1 1H5      -0.106000
     26 C26          7.2200    -1.7250    -0.6370 cg         1 1H5       0.318000
     27 N27          8.1100    -2.4140    -0.8780 n1         1 1H5      -0.425000
     28 F28         -4.0970     1.3100    -2.0470 f          1 1H5      -0.263000
     29 H1           0.6130     3.2460     1.0700 ha         1 1H5       0.152000
     30 H2          -1.7730     3.8180     1.1750 ha         1 1H5       0.135000
     31 H3          -0.4610    -0.5960    -0.5030 ha         1 1H5       0.140000
     32 H4          -2.6210     0.0760    -2.6540 h1         1 1H5       0.063200
     33 H5          -4.2190    -0.6620    -2.4450 h1         1 1H5       0.063200
     34 H6          -4.8310     0.4240     0.5410 h1         1 1H5       0.101700
     35 H7          -3.2570    -0.4740     2.1820 h1         1 1H5       0.076200
     36 H8          -4.7280    -1.4460     2.2100 h1         1 1H5       0.076200
     37 H9          -1.6380    -3.9550    -0.8640 hn         1 1H5       0.485500
     38 H10         -2.2530    -4.4400     0.6410 hn         1 1H5       0.485500
     39 H11          1.6980    -0.0960    -0.2350 hn         1 1H5       0.186000
     40 H12          4.6330    -2.2950    -1.0100 h4         1 1H5       0.037100
     41 H13          7.2960     0.7580     0.4080 ha         1 1H5       0.139000
     42 H14          5.2810     2.1540     0.9000 ha         1 1H5       0.158000
@<TRIPOS>BOND
     1     1     2 ar  
     2     1    12 ar  
     3     1    29 1   
     4     2     3 ar  
     5     2    30 1   
     6     3     4 ar  
     7     3    13 1   
     8     4     5 ar  
     9     4     6 1   
    10     5    12 ar  
    11     5    31 1   
    12     6     7 1   
    13     6     8 1   
    14     6    11 1   
    15     7    28 1   
    16     7    32 1   
    17     7    33 1   
    18     8     9 1   
    19     8    15 1   
    20     8    34 1   
    21     9    14 1   
    22     9    35 1   
    23     9    36 1   
    24    10    11 2   
    25    10    14 1   
    26    10    16 1   
    27    12    17 1   
    28    16    37 1   
    29    16    38 1   
    30    17    18 1   
    31    17    39 1   
    32    18    19 1   
    33    18    20 2   
    34    19    21 ar  
    35    19    25 ar  
    36    21    22 ar  
    37    22    23 ar  
    38    22    40 1   
    39    23    24 ar  
    40    23    26 1   
    41    24    25 ar  
    42    24    41 1   
    43    25    42 1   
    44    26    27 3   
@<TRIPOS>SUBSTRUCTURE
     1 1H5         1 TEMP              0 ****  ****    0 ROOT
