@<TRIPOS>MOLECULE
1H5
   42    44     1     0     0
SMALL
No Charge or Current Charge


@<TRIPOS>ATOM
      1 C2          -0.1480     2.5390     0.7750 ca         1 1H5      -0.101000
      2 C3          -1.5090     2.8690     0.8210 ca         1 1H5      -0.133000
      3 C4          -2.4830     1.9620     0.3800 ca         1 1H5       0.158000
      4 C5          -2.1230     0.6770    -0.1140 ca         1 1H5      -0.111300
      5 C6          -0.7320     0.3820    -0.1750 ca         1 1H5      -0.118000
      6 C8          -3.1850    -0.3700    -0.6230 c6         1 1H5       0.174500
      7 C9          -3.6410     0.0460    -2.0660 c3         1 1H5       0.207600
      8 C10         -4.4290    -0.5080     0.3270 c6         1 1H5       0.136300
      9 C11         -3.9500    -1.1770     1.6290 c6         1 1H5       0.141600
     10 C13         -2.5440    -2.5460     0.2110 c2         1 1H5       0.833500
     11 N14         -2.5360    -1.7130    -0.7540 n2         1 1H5      -0.773900
     12 C1           0.2510     1.2890     0.2670 ca         1 1H5      -0.038000
     13 F7          -3.7670     2.3750     0.4260 f          1 1H5      -0.177000
     14 O12         -3.3070    -2.4380     1.3310 os         1 1H5      -0.473600
     15 F15         -5.3960    -1.3570    -0.2680 f          1 1H5      -0.255000
     16 N16         -2.0370    -3.7710     0.1130 nv         1 1H5      -1.014200
     17 N17          1.6120     0.8800     0.1660 ns         1 1H5      -0.125000
     18 C18          2.8130     1.4910     0.5180 c          1 1H5       0.515600
     19 C19          4.0560     0.6520     0.2070 ca         1 1H5       0.300500
     20 O20          2.8820     2.6060     1.0340 o          1 1H5      -0.576100
     21 N21          3.9050    -0.5810    -0.3670 nb         1 1H5      -0.679000
     22 C22          5.0140    -1.3150    -0.6370 ca         1 1H5       0.379900
     23 C23          6.3140    -0.8690    -0.3550 ca         1 1H5      -0.050000
     24 C24          6.4830     0.3950     0.2350 ca         1 1H5      -0.043000
     25 C25          5.3380     1.1600     0.5180 ca         1 1H5      -0.106000
     26 C26          7.4390    -1.6980    -0.6670 cg         1 1H5       0.318000
     27 N27          8.3620    -2.3670    -0.9190 n1         1 1H5      -0.425000
     28 F28         -4.3520     1.2030    -2.0940 f          1 1H5      -0.263000
     29 H1           0.5720     3.2720     1.1240 ha         1 1H5       0.152000
     30 H2          -1.8150     3.8420     1.1960 ha         1 1H5       0.135000
     31 H3          -0.3850    -0.5660    -0.5790 ha         1 1H5       0.140000
     32 H4          -2.7550     0.1700    -2.7020 h1         1 1H5       0.063200
     33 H5          -4.2610    -0.7470    -2.5010 h1         1 1H5       0.063200
     34 H6          -4.9340     0.4410     0.5350 h1         1 1H5       0.101700
     35 H7          -3.2300    -0.5210     2.1370 h1         1 1H5       0.076200
     36 H8          -4.7950    -1.3490     2.3110 h1         1 1H5       0.076200
     37 H9          -1.9460    -4.0280    -0.8590 hn         1 1H5       0.485500
     38 H10         -2.5640    -4.4240     0.6730 hn         1 1H5       0.485500
     39 H11          1.7390    -0.0370    -0.2440 hn         1 1H5       0.186000
     40 H12          4.8440    -2.2900    -1.0940 h4         1 1H5       0.037100
     41 H13          7.4750     0.7780     0.4700 ha         1 1H5       0.139000
     42 H14          5.4430     2.1420     0.9740 ha         1 1H5       0.158000
@<TRIPOS>BOND
     1     1     2 ar  
     2     1    12 ar  
     3     1    29 1   
     4     2     3 ar  
     5     2    30 1   
     6     3     4 ar  
     7     3    13 1   
     8     4     5 ar  
     9     4     6 1   
    10     5    12 ar  
    11     5    31 1   
    12     6     7 1   
    13     6     8 1   
    14     6    11 1   
    15     7    28 1   
    16     7    32 1   
    17     7    33 1   
    18     8     9 1   
    19     8    15 1   
    20     8    34 1   
    21     9    14 1   
    22     9    35 1   
    23     9    36 1   
    24    10    11 2   
    25    10    14 1   
    26    10    16 1   
    27    12    17 1   
    28    16    37 1   
    29    16    38 1   
    30    17    18 1   
    31    17    39 1   
    32    18    19 1   
    33    18    20 2   
    34    19    21 ar  
    35    19    25 ar  
    36    21    22 ar  
    37    22    23 ar  
    38    22    40 1   
    39    23    24 ar  
    40    23    26 1   
    41    24    25 ar  
    42    24    41 1   
    43    25    42 1   
    44    26    27 3   
@<TRIPOS>SUBSTRUCTURE
     1 1H5         1 TEMP              0 ****  ****    0 ROOT
