@<TRIPOS>MOLECULE
1H6
   42    44     1     0     0
SMALL
abcg2


@<TRIPOS>ATOM
      1 C13        -15.4000   -39.9640    -7.4490 c2         1 1H6       0.806500
      2 C3         -20.7260   -38.9470    -9.1610 ca         1 1H6      -0.128000
      3 C2         -21.0650   -39.6290    -8.0010 ca         1 1H6      -0.103000
      4 C1         -20.0490   -40.0060    -7.1240 ca         1 1H6      -0.042000
      5 C4         -19.4040   -38.6560    -9.4390 ca         1 1H6       0.163000
      6 C5         -18.3550   -39.0260    -8.5960 ca         1 1H6      -0.087300
      7 C6         -18.7210   -39.7030    -7.4370 ca         1 1H6      -0.126000
      8 C10        -16.3300   -39.7310    -9.9400 c6         1 1H6       0.132300
      9 C8         -16.8710   -38.7440    -8.8900 c6         1 1H6       0.215500
     10 C11        -16.1960   -41.1200    -9.3540 c6         1 1H6       0.139600
     11 F7         -19.1640   -37.9750   -10.5890 f          1 1H6      -0.176000
     12 O12        -15.3160   -41.0770    -8.2230 os         1 1H6      -0.485600
     13 N14        -16.0850   -38.9100    -7.6660 n2         1 1H6      -0.757900
     14 F15        -17.1650   -39.8300   -11.0610 f          1 1H6      -0.248000
     15 N16        -14.5770   -40.0840    -6.3650 nv         1 1H6      -1.013200
     16 N17        -20.2730   -40.6790    -5.9130 ns         1 1H6      -0.123000
     17 C18        -21.4350   -41.0960    -5.3670 c          1 1H6       0.509600
     18 C19        -21.2570   -41.7530    -4.0200 ca         1 1H6       0.304500
     19 O20        -22.5500   -40.9750    -5.8670 o          1 1H6      -0.583100
     20 N21        -20.0130   -41.8590    -3.5390 nb         1 1H6      -0.682000
     21 C22        -19.8320   -42.4250    -2.3560 ca         1 1H6       0.377900
     22 C23        -20.9000   -42.9150    -1.5930 ca         1 1H6      -0.050000
     23 C24        -22.1980   -42.8050    -2.0960 ca         1 1H6      -0.041000
     24 C25        -22.3760   -42.2120    -3.3330 ca         1 1H6      -0.105000
     25 C26        -20.6490   -43.5120    -0.3230 cg         1 1H6       0.316000
     26 N27        -20.4410   -43.9910     0.7050 n1         1 1H6      -0.424000
     27 H1         -21.4890   -38.6340    -9.8610 ha         1 1H6       0.137000
     28 H2         -22.0940   -39.8560    -7.7800 ha         1 1H6       0.153000
     29 H3         -17.9460   -39.9930    -6.7430 ha         1 1H6       0.120000
     30 H4         -15.3610   -39.3730   -10.2940 h1         1 1H6       0.077700
     31 H8         -17.1700   -41.5050    -9.0470 h1         1 1H6       0.075700
     32 H9         -15.7450   -41.8030   -10.0690 h1         1 1H6       0.075700
     33 H10        -14.3730   -41.0230    -6.0570 hn         1 1H6       0.484000
     34 H11        -14.7330   -39.4140    -5.6290 hn         1 1H6       0.484000
     35 H12        -19.4570   -40.8760    -5.3440 hn         1 1H6       0.181000
     36 H13        -18.8160   -42.4990    -1.9870 h4         1 1H6       0.037100
     37 H14        -23.0390   -43.1750    -1.5260 ha         1 1H6       0.141000
     38 H15        -23.3580   -42.1010    -3.7680 ha         1 1H6       0.159000
     39 C9         -16.6420   -37.3000    -9.3600 c3         1 1H6      -0.073100
     40 H5         -17.0690   -36.6050    -8.6360 hc         1 1H6       0.053033
     41 H6         -15.5680   -37.1230    -9.4190 hc         1 1H6       0.053033
     42 H7         -17.0840   -37.1120   -10.3340 hc         1 1H6       0.053033
@<TRIPOS>BOND
     1     1    12 1   
     2     1    13 2   
     3     1    15 1   
     4     2     3 ar  
     5     2     5 ar  
     6     2    27 1   
     7     3     4 ar  
     8     3    28 1   
     9     4     7 ar  
    10     4    16 1   
    11     5     6 ar  
    12     5    11 1   
    13     6     7 ar  
    14     6     9 1   
    15     7    29 1   
    16     8     9 1   
    17     8    10 1   
    18     8    14 1   
    19     8    30 1   
    20     9    13 1   
    21     9    39 1   
    22    10    12 1   
    23    10    31 1   
    24    10    32 1   
    25    15    33 1   
    26    15    34 1   
    27    16    17 1   
    28    16    35 1   
    29    17    18 1   
    30    17    19 2   
    31    18    20 ar  
    32    18    24 ar  
    33    20    21 ar  
    34    21    22 ar  
    35    21    36 1   
    36    22    23 ar  
    37    22    25 1   
    38    23    24 ar  
    39    23    37 1   
    40    24    38 1   
    41    25    26 3   
    42    39    40 1   
    43    39    41 1   
    44    39    42 1   
@<TRIPOS>SUBSTRUCTURE
     1 1H6         1 TEMP              0 ****  ****    0 ROOT
