@<TRIPOS>MOLECULE
1H6
   42    44     1     0     0
SMALL
No Charge or Current Charge


@<TRIPOS>ATOM
      1 C13        -15.3240   -39.7680    -7.3830 c2         1 1H6       0.806500
      2 C3         -20.7490   -38.7820    -9.1730 ca         1 1H6      -0.128000
      3 C2         -21.0930   -39.4510    -7.9900 ca         1 1H6      -0.103000
      4 C1         -20.0810   -39.9140    -7.1280 ca         1 1H6      -0.042000
      5 C4         -19.4050   -38.5570    -9.5060 ca         1 1H6       0.163000
      6 C5         -18.3550   -38.9930    -8.6510 ca         1 1H6      -0.087300
      7 C6         -18.7340   -39.6850    -7.4680 ca         1 1H6      -0.126000
      8 C10        -16.3090   -39.8730    -9.9760 c6         1 1H6       0.132300
      9 C8         -16.8330   -38.7760    -8.9900 c6         1 1H6       0.215500
     10 C11        -16.0920   -41.1760    -9.1930 c6         1 1H6       0.139600
     11 F7         -19.1610   -37.9350   -10.6800 f          1 1H6      -0.176000
     12 O12        -15.1990   -40.9240    -8.0860 os         1 1H6      -0.485600
     13 N14        -16.0310   -38.7660    -7.7330 n2         1 1H6      -0.757900
     14 F15        -17.2370   -40.1120   -11.0140 f          1 1H6      -0.248000
     15 N16        -14.5780   -39.8040    -6.2820 nv         1 1H6      -1.013200
     16 N17        -20.3410   -40.6130    -5.9150 ns         1 1H6      -0.123000
     17 C18        -21.5160   -41.0100    -5.2830 c          1 1H6       0.509600
     18 C19        -21.2960   -41.7540    -3.9620 ca         1 1H6       0.304500
     19 O20        -22.6390   -40.7890    -5.7360 o          1 1H6      -0.583100
     20 N21        -20.0190   -41.9670    -3.5190 nb         1 1H6      -0.682000
     21 C22        -19.8370   -42.6270    -2.3470 ca         1 1H6       0.377900
     22 C23        -20.9000   -43.1050    -1.5650 ca         1 1H6      -0.050000
     23 C24        -22.2170   -42.8930    -2.0100 ca         1 1H6      -0.041000
     24 C25        -22.4120   -42.2090    -3.2230 ca         1 1H6      -0.105000
     25 C26        -20.6340   -43.7950    -0.3390 cg         1 1H6       0.316000
     26 N27        -20.4260   -44.3580     0.6620 n1         1 1H6      -0.424000
     27 H1         -21.5320   -38.4370    -9.8440 ha         1 1H6       0.137000
     28 H2         -22.1460   -39.6040    -7.7710 ha         1 1H6       0.153000
     29 H3         -17.9760   -40.0630    -6.7880 ha         1 1H6       0.120000
     30 H4         -15.3620   -39.5610   -10.4370 h1         1 1H6       0.077700
     31 H8         -17.0520   -41.5420    -8.8030 h1         1 1H6       0.075700
     32 H9         -15.6630   -41.9530    -9.8410 h1         1 1H6       0.075700
     33 H10        -14.4250   -40.7540    -5.9760 hn         1 1H6       0.484000
     34 H11        -14.9320   -39.1770    -5.5740 hn         1 1H6       0.484000
     35 H12        -19.5060   -40.8760    -5.4040 hn         1 1H6       0.181000
     36 H13        -18.8040   -42.7730    -2.0340 h4         1 1H6       0.037100
     37 H14        -23.0690   -43.2480    -1.4320 ha         1 1H6       0.141000
     38 H15        -23.4200   -42.0330    -3.5880 ha         1 1H6       0.159000
     39 C9         -16.5580   -37.3640    -9.5990 c3         1 1H6      -0.073100
     40 H5         -17.0810   -36.5790    -9.0400 hc         1 1H6       0.053033
     41 H6         -15.4880   -37.1230    -9.5790 hc         1 1H6       0.053033
     42 H7         -16.8570   -37.2930   -10.6500 hc         1 1H6       0.053033
@<TRIPOS>BOND
     1     1    12 1   
     2     1    13 2   
     3     1    15 1   
     4     2     3 ar  
     5     2     5 ar  
     6     2    27 1   
     7     3     4 ar  
     8     3    28 1   
     9     4     7 ar  
    10     4    16 1   
    11     5     6 ar  
    12     5    11 1   
    13     6     7 ar  
    14     6     9 1   
    15     7    29 1   
    16     8     9 1   
    17     8    10 1   
    18     8    14 1   
    19     8    30 1   
    20     9    13 1   
    21     9    39 1   
    22    10    12 1   
    23    10    31 1   
    24    10    32 1   
    25    15    33 1   
    26    15    34 1   
    27    16    17 1   
    28    16    35 1   
    29    17    18 1   
    30    17    19 2   
    31    18    20 ar  
    32    18    24 ar  
    33    20    21 ar  
    34    21    22 ar  
    35    21    36 1   
    36    22    23 ar  
    37    22    25 1   
    38    23    24 ar  
    39    23    37 1   
    40    24    38 1   
    41    25    26 3   
    42    39    40 1   
    43    39    41 1   
    44    39    42 1   
@<TRIPOS>SUBSTRUCTURE
     1 1H6         1 TEMP              0 ****  ****    0 ROOT
