@<TRIPOS>MOLECULE
1H7
   42    44     1     0     0
SMALL
abcg2


@<TRIPOS>ATOM
      1 C2           6.0850     0.2820     0.3240 ca         1 1H7      -0.043000
      2 C4           3.7410     0.6260     0.1320 ca         1 1H7       0.304500
      3 C6           4.5190    -1.5160     0.0480 ca         1 1H7       0.379900
      4 C7           2.5530     1.5480     0.0850 c          1 1H7       0.511600
      5 C10          6.9010    -2.0280     0.2310 cg         1 1H7       0.317000
      6 C1           5.8360    -1.0810     0.2010 ca         1 1H7      -0.051000
      7 C3           5.0140     1.1540     0.2880 ca         1 1H7      -0.105000
      8 N5           3.5060    -0.6760     0.0160 nb         1 1H7      -0.683000
      9 N8           1.3880     0.8920    -0.0600 ns         1 1H7      -0.122000
     10 O9           2.6950     2.7550     0.1730 o          1 1H7      -0.580100
     11 N11          7.7590    -2.7950     0.2570 n1         1 1H7      -0.426000
     12 C12          0.0890     1.3970    -0.1520 ca         1 1H7      -0.045000
     13 C13         -0.2330     2.7500    -0.1150 ca         1 1H7      -0.102000
     14 C14         -1.5620     3.1230    -0.2250 ca         1 1H7      -0.137000
     15 C15         -2.5540     2.1730    -0.3640 ca         1 1H7       0.161000
     16 C16         -2.2720     0.8100    -0.4040 ca         1 1H7      -0.082300
     17 C17         -0.9330     0.4600    -0.2950 ca         1 1H7      -0.113000
     18 C18         -3.3350    -0.2880    -0.5120 c6         1 1H7       0.215500
     19 C19         -4.3000    -0.0210    -1.6760 c3         1 1H7      -0.092100
     20 C20         -4.9120    -1.6710     0.8600 c6         1 1H7       0.137600
     21 O21         -4.1500    -2.8170     0.5150 os         1 1H7      -0.478600
     22 C22         -3.1040    -2.6330    -0.3010 c2         1 1H7       0.811500
     23 N23         -2.6600    -1.5430    -0.7760 n2         1 1H7      -0.766900
     24 N24         -2.5450    -3.8340    -0.6360 nv         1 1H7      -0.997200
     25 C25         -4.0520    -0.4240     0.8370 c6         1 1H7       0.138300
     26 F26         -4.8820     0.6450     1.1060 f          1 1H7      -0.241000
     27 F27         -3.8120     2.6250    -0.4670 f          1 1H7      -0.173000
     28 H1           7.0940     0.6490     0.4470 ha         1 1H7       0.139000
     29 H2           4.2950    -2.5710    -0.0490 h4         1 1H7       0.036100
     30 H3           5.1650     2.2190     0.3790 ha         1 1H7       0.158000
     31 H4           1.4860    -0.1140    -0.1130 hn         1 1H7       0.183000
     32 H5           0.5230     3.5100    -0.0070 ha         1 1H7       0.150000
     33 H6          -1.8320     4.1700    -0.2000 ha         1 1H7       0.134000
     34 H7          -0.6900    -0.5940    -0.3360 ha         1 1H7       0.136000
     35 H8          -3.7290     0.0840    -2.5990 hc         1 1H7       0.052367
     36 H9          -4.9780    -0.8630    -1.8160 hc         1 1H7       0.052367
     37 H10         -4.9030     0.8720    -1.5450 hc         1 1H7       0.052367
     38 H11         -5.7600    -1.5730     0.1760 h1         1 1H7       0.073700
     39 H12         -5.3080    -1.8460     1.8600 h1         1 1H7       0.073700
     40 H13         -2.6660    -4.5870     0.0200 hn         1 1H7       0.475000
     41 H14         -1.6060    -3.7710    -0.9920 hn         1 1H7       0.475000
     42 H15         -3.3000    -0.4740     1.6310 h1         1 1H7       0.070700
@<TRIPOS>BOND
     1     1     6 ar  
     2     1     7 ar  
     3     1    28 1   
     4     2     4 1   
     5     2     7 ar  
     6     2     8 ar  
     7     3     6 ar  
     8     3     8 ar  
     9     3    29 1   
    10     4     9 1   
    11     4    10 2   
    12     5     6 1   
    13     5    11 3   
    14     7    30 1   
    15     9    12 1   
    16     9    31 1   
    17    12    13 ar  
    18    12    17 ar  
    19    13    14 ar  
    20    13    32 1   
    21    14    15 ar  
    22    14    33 1   
    23    15    16 ar  
    24    15    27 1   
    25    16    17 ar  
    26    16    18 1   
    27    17    34 1   
    28    18    19 1   
    29    18    23 1   
    30    18    25 1   
    31    19    35 1   
    32    19    36 1   
    33    19    37 1   
    34    20    21 1   
    35    20    25 1   
    36    20    38 1   
    37    20    39 1   
    38    21    22 1   
    39    22    23 2   
    40    22    24 1   
    41    24    40 1   
    42    24    41 1   
    43    25    26 1   
    44    25    42 1   
@<TRIPOS>SUBSTRUCTURE
     1 1H7         1 TEMP              0 ****  ****    0 ROOT
