@<TRIPOS>MOLECULE
1H7
   42    44     1     0     0
SMALL
No Charge or Current Charge


@<TRIPOS>ATOM
      1 C2           6.2250     0.2510     0.3570 ca         1 1H7      -0.043000
      2 C4           3.8200     0.6050     0.1340 ca         1 1H7       0.304500
      3 C6           4.6520    -1.5840     0.2580 ca         1 1H7       0.379900
      4 C7           2.6330     1.5640     0.0060 c          1 1H7       0.511600
      5 C10          7.0470    -2.0770     0.4830 cg         1 1H7       0.317000
      6 C1           5.9770    -1.1330     0.3660 ca         1 1H7      -0.051000
      7 C3           5.1300     1.1250     0.2390 ca         1 1H7      -0.105000
      8 N5           3.5920    -0.7440     0.1440 nb         1 1H7      -0.683000
      9 N8           1.3970     0.9300    -0.0910 ns         1 1H7      -0.122000
     10 O9           2.7710     2.7870    -0.0080 o          1 1H7      -0.580100
     11 N11          7.9260    -2.8390     0.5790 n1         1 1H7      -0.426000
     12 C12          0.0640     1.4180    -0.2210 ca         1 1H7      -0.045000
     13 C13         -0.2610     2.7870    -0.2690 ca         1 1H7      -0.102000
     14 C14         -1.6020     3.1820    -0.3790 ca         1 1H7      -0.137000
     15 C15         -2.6270     2.2280    -0.4560 ca         1 1H7       0.161000
     16 C16         -2.3330     0.8380    -0.4390 ca         1 1H7      -0.082300
     17 C17         -0.9700     0.4650    -0.2980 ca         1 1H7      -0.113000
     18 C18         -3.4390    -0.2690    -0.4990 c6         1 1H7       0.215500
     19 C19         -4.5620     0.0640    -1.5440 c3         1 1H7      -0.092100
     20 C20         -4.7980    -1.8040     0.9990 c6         1 1H7       0.137600
     21 O21         -3.9620    -2.8770     0.5180 os         1 1H7      -0.478600
     22 C22         -3.2080    -2.6750    -0.5920 c2         1 1H7       0.811500
     23 N23         -2.8630    -1.5330    -1.0420 n2         1 1H7      -0.766900
     24 N24         -2.6490    -3.8160    -0.9870 nv         1 1H7      -0.997200
     25 C25         -4.0170    -0.4820     0.9410 c6         1 1H7       0.138300
     26 F26         -4.8820     0.5750     1.3030 f          1 1H7      -0.241000
     27 F27         -3.8950     2.6890    -0.5180 f          1 1H7      -0.173000
     28 H1           7.2380     0.6410     0.4390 ha         1 1H7       0.139000
     29 H2           4.4230    -2.6490     0.2610 h4         1 1H7       0.036100
     30 H3           5.2950     2.2000     0.2300 ha         1 1H7       0.158000
     31 H4           1.4660    -0.0800    -0.0640 hn         1 1H7       0.183000
     32 H5           0.5010     3.5590    -0.2110 ha         1 1H7       0.150000
     33 H6          -1.8530     4.2400    -0.3980 ha         1 1H7       0.134000
     34 H7          -0.6970    -0.5860    -0.2410 ha         1 1H7       0.136000
     35 H8          -4.1280     0.3980    -2.4940 hc         1 1H7       0.052367
     36 H9          -5.1850    -0.8110    -1.7670 hc         1 1H7       0.052367
     37 H10         -5.2530     0.8410    -1.2040 hc         1 1H7       0.052367
     38 H11         -5.6960    -1.7390     0.3690 h1         1 1H7       0.073700
     39 H12         -5.1150    -2.0210     2.0280 h1         1 1H7       0.073700
     40 H13         -2.6310    -4.4860    -0.2310 hn         1 1H7       0.475000
     41 H14         -1.7570    -3.6510    -1.4300 hn         1 1H7       0.475000
     42 H15         -3.2000    -0.5080     1.6750 h1         1 1H7       0.070700
@<TRIPOS>BOND
     1     1     6 ar  
     2     1     7 ar  
     3     1    28 1   
     4     2     4 1   
     5     2     7 ar  
     6     2     8 ar  
     7     3     6 ar  
     8     3     8 ar  
     9     3    29 1   
    10     4     9 1   
    11     4    10 2   
    12     5     6 1   
    13     5    11 3   
    14     7    30 1   
    15     9    12 1   
    16     9    31 1   
    17    12    13 ar  
    18    12    17 ar  
    19    13    14 ar  
    20    13    32 1   
    21    14    15 ar  
    22    14    33 1   
    23    15    16 ar  
    24    15    27 1   
    25    16    17 ar  
    26    16    18 1   
    27    17    34 1   
    28    18    19 1   
    29    18    23 1   
    30    18    25 1   
    31    19    35 1   
    32    19    36 1   
    33    19    37 1   
    34    20    21 1   
    35    20    25 1   
    36    20    38 1   
    37    20    39 1   
    38    21    22 1   
    39    22    23 2   
    40    22    24 1   
    41    24    40 1   
    42    24    41 1   
    43    25    26 1   
    44    25    42 1   
@<TRIPOS>SUBSTRUCTURE
     1 1H7         1 TEMP              0 ****  ****    0 ROOT
