@<TRIPOS>MOLECULE
1H8
   42    44     1     0     0
SMALL
abcg2


@<TRIPOS>ATOM
      1 C1          -5.6520     1.1440    -0.1220 ca         1 1H8      -0.052000
      2 C2          -4.3270     1.5610    -0.2630 ca         1 1H8       0.380900
      3 N3          -3.3180     0.7220    -0.1640 nb         1 1H8      -0.680000
      4 C4          -3.5640    -0.5620     0.0750 ca         1 1H8       0.305500
      5 C5          -4.8460    -1.0710     0.2310 ca         1 1H8      -0.106000
      6 C6          -5.9140    -0.1990     0.1310 ca         1 1H8      -0.044000
      7 C10         -6.7100     2.0910    -0.2400 cg         1 1H8       0.318000
      8 C14          1.1330    -0.4830    -0.1650 ca         1 1H8      -0.111000
      9 C15          1.7140    -3.1410     0.2030 ca         1 1H8      -0.133000
     10 C16          0.0910    -1.3930     0.0250 ca         1 1H8      -0.043000
     11 C17          0.3860    -2.7400     0.2120 ca         1 1H8      -0.108000
     12 C19          3.5760     0.1700    -0.4010 c6         1 1H8       0.239500
     13 C23          5.4070     1.3970     0.7610 c6         1 1H8       0.167600
     14 C25          3.4510     2.4910     0.0660 c2         1 1H8       0.818500
     15 C7          -2.3810    -1.4880     0.1720 c          1 1H8       0.511600
     16 O8          -2.5400    -2.6790     0.3810 o          1 1H8      -0.584100
     17 N9          -1.2030    -0.8630     0.0070 ns         1 1H8      -0.120000
     18 N11         -7.5620     2.8600    -0.3380 n1         1 1H8      -0.428000
     19 C12          2.4670    -0.8620    -0.1770 ca         1 1H8      -0.075300
     20 C13          2.7190    -2.2180     0.0120 ca         1 1H8       0.140000
     21 F18          3.9860    -2.6780     0.0140 f          1 1H8      -0.188000
     22 C20          4.2730    -0.1360    -1.7360 c3         1 1H8      -0.087100
     23 N21          2.9600     1.4740    -0.5180 n2         1 1H8      -0.777900
     24 C22          4.5650     0.1430     0.7770 c6         1 1H8      -0.142400
     25 O24          4.5840     2.5620     0.7790 os         1 1H8      -0.480600
     26 N26          2.8040     3.6910     0.0760 nv         1 1H8      -1.012200
     27 H1          -4.0940     2.6010    -0.4600 h4         1 1H8       0.037100
     28 H2          -5.0070    -2.1210     0.4240 ha         1 1H8       0.158000
     29 H3          -6.9300    -0.5510     0.2470 ha         1 1H8       0.139000
     30 H5           1.9650    -4.1840     0.3470 ha         1 1H8       0.132000
     31 H6          -0.3850    -3.4770     0.3620 ha         1 1H8       0.150000
     32 H7           6.0400     1.4590     1.6450 h1         1 1H8       0.058200
     33 H8           6.0560     1.4300    -0.1180 h1         1 1H8       0.058200
     34 H9          -1.2720     0.1350    -0.1530 hn         1 1H8       0.185000
     35 H10          3.5550    -0.0710    -2.5540 hc         1 1H8       0.043700
     36 H11          5.0620     0.5920    -1.9320 hc         1 1H8       0.043700
     37 H12          4.7220    -1.1280    -1.7530 hc         1 1H8       0.043700
     38 H13          4.0160     0.0870     1.7210 hc         1 1H8       0.072200
     39 H14          5.2290    -0.7190     0.7330 hc         1 1H8       0.072200
     40 H15          2.0410     3.7680    -0.5760 hn         1 1H8       0.477500
     41 H16          3.3720     4.5210     0.1390 hn         1 1H8       0.477500
     42 H4           0.9100     0.5650    -0.3140 ha         1 1H8       0.144000
@<TRIPOS>BOND
     1     1     2 ar  
     2     1     6 ar  
     3     1     7 1   
     4     2     3 ar  
     5     2    27 1   
     6     3     4 ar  
     7     4     5 ar  
     8     4    15 1   
     9     5     6 ar  
    10     5    28 1   
    11     6    29 1   
    12     7    18 3   
    13     8    10 ar  
    14     8    19 ar  
    15     8    42 1   
    16     9    11 ar  
    17     9    20 ar  
    18     9    30 1   
    19    10    11 ar  
    20    10    17 1   
    21    11    31 1   
    22    12    19 1   
    23    12    22 1   
    24    12    23 1   
    25    12    24 1   
    26    13    24 1   
    27    13    25 1   
    28    13    32 1   
    29    13    33 1   
    30    14    23 2   
    31    14    25 1   
    32    14    26 1   
    33    15    16 2   
    34    15    17 1   
    35    17    34 1   
    36    19    20 ar  
    37    20    21 1   
    38    22    35 1   
    39    22    36 1   
    40    22    37 1   
    41    24    38 1   
    42    24    39 1   
    43    26    40 1   
    44    26    41 1   
@<TRIPOS>SUBSTRUCTURE
     1 1H8         1 TEMP              0 ****  ****    0 ROOT
