@<TRIPOS>MOLECULE
1H8
   42    44     1     0     0
SMALL
No Charge or Current Charge


@<TRIPOS>ATOM
      1 C1          -5.8490     1.1520    -0.0220 ca         1 1H8      -0.052000
      2 C2          -4.5200     1.5900    -0.1350 ca         1 1H8       0.380900
      3 N3          -3.4570     0.7480    -0.0900 nb         1 1H8      -0.680000
      4 C4          -3.6860    -0.5920     0.0720 ca         1 1H8       0.305500
      5 C5          -5.0000    -1.0990     0.1920 ca         1 1H8      -0.106000
      6 C6          -6.0970    -0.2210     0.1450 ca         1 1H8      -0.044000
      7 C10         -6.9210     2.0990    -0.0790 cg         1 1H8       0.318000
      8 C14          1.1180    -0.4860    -0.1720 ca         1 1H8      -0.111000
      9 C15          1.7490    -3.1920     0.1200 ca         1 1H8      -0.133000
     10 C16          0.0800    -1.4260    -0.0120 ca         1 1H8      -0.043000
     11 C17          0.4060    -2.7890     0.1340 ca         1 1H8      -0.108000
     12 C19          3.6240     0.1890    -0.3700 c6         1 1H8       0.239500
     13 C23          5.4250     1.4430     0.9050 c6         1 1H8       0.167600
     14 C25          3.5480     2.5850    -0.0590 c2         1 1H8       0.818500
     15 C7          -2.4950    -1.5540     0.1240 c          1 1H8       0.511600
     16 O8          -2.6340    -2.7680     0.2680 o          1 1H8      -0.584100
     17 N9          -1.2560    -0.9320    -0.0050 ns         1 1H8      -0.120000
     18 N11         -7.8030     2.8630    -0.1230 n1         1 1H8      -0.428000
     19 C12          2.4860    -0.8700    -0.1960 ca         1 1H8      -0.075300
     20 C13          2.7770    -2.2510    -0.0410 ca         1 1H8       0.140000
     21 F18          4.0480    -2.7090    -0.0360 f          1 1H8      -0.188000
     22 C20          4.4370    -0.1250    -1.6670 c3         1 1H8      -0.087100
     23 N21          3.0680     1.5450    -0.6130 n2         1 1H8      -0.777900
     24 C22          4.5460     0.1880     0.8820 c6         1 1H8      -0.142400
     25 O24          4.5830     2.6010     0.8160 os         1 1H8      -0.480600
     26 N26          3.0630     3.8120    -0.2410 nv         1 1H8      -1.012200
     27 H1          -4.2890     2.6470    -0.2650 h4         1 1H8       0.037100
     28 H2          -5.1660    -2.1660     0.3200 ha         1 1H8       0.158000
     29 H3          -7.1140    -0.6010     0.2360 ha         1 1H8       0.139000
     30 H5           1.9990    -4.2440     0.2360 ha         1 1H8       0.132000
     31 H6          -0.3580    -3.5490     0.2600 ha         1 1H8       0.150000
     32 H7           6.0150     1.4920     1.8310 h1         1 1H8       0.058200
     33 H8           6.1210     1.4390     0.0550 h1         1 1H8       0.058200
     34 H9          -1.3260     0.0720    -0.1160 hn         1 1H8       0.185000
     35 H10          3.7690    -0.2370    -2.5300 hc         1 1H8       0.043700
     36 H11          5.1470     0.6740    -1.9100 hc         1 1H8       0.043700
     37 H12          5.0190    -1.0480    -1.5830 hc         1 1H8       0.043700
     38 H13          3.9340     0.1640     1.7940 hc         1 1H8       0.072200
     39 H14          5.1850    -0.7030     0.9120 hc         1 1H8       0.072200
     40 H15          2.5980     3.8820    -1.1340 hn         1 1H8       0.477500
     41 H16          3.7640     4.5180    -0.0680 hn         1 1H8       0.477500
     42 H4           0.8390     0.5590    -0.2790 ha         1 1H8       0.144000
@<TRIPOS>BOND
     1     1     2 ar  
     2     1     6 ar  
     3     1     7 1   
     4     2     3 ar  
     5     2    27 1   
     6     3     4 ar  
     7     4     5 ar  
     8     4    15 1   
     9     5     6 ar  
    10     5    28 1   
    11     6    29 1   
    12     7    18 3   
    13     8    10 ar  
    14     8    19 ar  
    15     8    42 1   
    16     9    11 ar  
    17     9    20 ar  
    18     9    30 1   
    19    10    11 ar  
    20    10    17 1   
    21    11    31 1   
    22    12    19 1   
    23    12    22 1   
    24    12    23 1   
    25    12    24 1   
    26    13    24 1   
    27    13    25 1   
    28    13    32 1   
    29    13    33 1   
    30    14    23 2   
    31    14    25 1   
    32    14    26 1   
    33    15    16 2   
    34    15    17 1   
    35    17    34 1   
    36    19    20 ar  
    37    20    21 1   
    38    22    35 1   
    39    22    36 1   
    40    22    37 1   
    41    24    38 1   
    42    24    39 1   
    43    26    40 1   
    44    26    41 1   
@<TRIPOS>SUBSTRUCTURE
     1 1H8         1 TEMP              0 ****  ****    0 ROOT
