@<TRIPOS>MOLECULE
1H9
   35    38     1     0     0
SMALL
No Charge or Current Charge


@<TRIPOS>ATOM
      1 CAV         13.8700    15.1910    10.6820 ca         1 1H9      -0.225000
      2 CAU         15.1200    15.2170    11.3320 ca         1 1H9       0.100000
      3 CAQ         15.2810    15.8700    12.6380 cc         1 1H9      -0.153000
      4 CAR         14.3150    16.5410    13.4370 cc         1 1H9      -0.071000
      5 CAS         14.8190    17.0380    14.6150 cd         1 1H9      -0.248000
      6 SAT         16.5510    16.6860    14.7830 ss         1 1H9       0.185000
      7 CAP         16.5230    15.8600    13.2150 cd         1 1H9      -0.024400
      8 NAO         17.6110    15.2630    12.6150 ns         1 1H9      -0.355100
      9 CAM         17.5770    14.6260    11.4000 c          1 1H9       0.584600
     10 OAN         18.5800    14.1170    10.9230 o          1 1H9      -0.549000
     11 CAL         16.2360    14.6040    10.7150 ca         1 1H9      -0.207600
     12 CAK         16.0880    13.9760     9.4610 ca         1 1H9      -0.010000
     13 CAJ         14.8380    13.9580     8.8260 ca         1 1H9      -0.167000
     14 CAI         13.7270    14.5610     9.4290 ca         1 1H9       0.181100
     15 OAH         12.5250    14.5100     8.7540 os         1 1H9      -0.338100
     16 CAG         11.3230    15.0970     9.2800 c3         1 1H9       0.209900
     17 CAF         10.1970    14.8600     8.2840 ca         1 1H9      -0.097300
     18 CAW         10.0100    15.7450     7.2030 ca         1 1H9      -0.060000
     19 CAB          8.9700    15.5260     6.2830 ca         1 1H9      -0.022900
     20 Br1          8.7240    16.7320     4.8190 br         1 1H9      -0.094100
     21 CAC          8.1130    14.4230     6.4330 ca         1 1H9      -0.071000
     22 CAD          8.2970    13.5370     7.5080 ca         1 1H9      -0.114000
     23 CAE          9.3360    13.7540     8.4300 ca         1 1H9      -0.071000
     24 H1          13.0180    15.6610    11.1590 ha         1 1H9       0.120000
     25 H2          13.2760    16.6500    13.1430 ha         1 1H9       0.136000
     26 H3          14.2950    17.5840    15.3900 h4         1 1H9       0.155000
     27 H4          18.5180    15.2710    13.0650 hn         1 1H9       0.336500
     28 H5          16.9410    13.5010     8.9780 ha         1 1H9       0.139000
     29 H6          14.7280    13.4720     7.8600 ha         1 1H9       0.135000
     30 H7          11.4540    16.1760     9.4330 h1         1 1H9       0.046200
     31 H8          11.0610    14.6440    10.2450 h1         1 1H9       0.046200
     32 H9          10.6710    16.6000     7.0770 ha         1 1H9       0.131000
     33 H10          7.3090    14.2550     5.7190 ha         1 1H9       0.131000
     34 H11          7.6350    12.6810     7.6260 ha         1 1H9       0.121000
     35 H12          9.4730    13.0610     9.2580 ha         1 1H9       0.121000
@<TRIPOS>BOND
     1     1     2 ar  
     2     1    14 ar  
     3     1    24 1   
     4     2     3 1   
     5     2    11 ar  
     6     3     4 1   
     7     3     7 2   
     8     4     5 2   
     9     4    25 1   
    10     5     6 1   
    11     5    26 1   
    12     6     7 1   
    13     7     8 1   
    14     8     9 1   
    15     8    27 1   
    16     9    10 2   
    17     9    11 1   
    18    11    12 ar  
    19    12    13 ar  
    20    12    28 1   
    21    13    14 ar  
    22    13    29 1   
    23    14    15 1   
    24    15    16 1   
    25    16    17 1   
    26    16    30 1   
    27    16    31 1   
    28    17    18 ar  
    29    17    23 ar  
    30    18    19 ar  
    31    18    32 1   
    32    19    20 1   
    33    19    21 ar  
    34    21    22 ar  
    35    21    33 1   
    36    22    23 ar  
    37    22    34 1   
    38    23    35 1   
@<TRIPOS>SUBSTRUCTURE
     1 1H9         1 TEMP              0 ****  ****    0 ROOT
