@<TRIPOS>MOLECULE
1H9
   35    38     1     0     0
SMALL
abcg2


@<TRIPOS>ATOM
      1 CAV         13.8070    15.2580    10.6600 ca         1 1H9      -0.225000
      2 CAU         15.0390    15.2320    11.3250 ca         1 1H9       0.100000
      3 CAQ         15.2430    15.8980    12.5850 cc         1 1H9      -0.153000
      4 CAR         14.3390    16.6670    13.3810 cc         1 1H9      -0.071000
      5 CAS         14.9060    17.1340    14.5170 cd         1 1H9      -0.248000
      6 SAT         16.5620    16.6540    14.6680 ss         1 1H9       0.185000
      7 CAP         16.4820    15.8160    13.1700 cd         1 1H9      -0.024400
      8 NAO         17.5250    15.1410    12.6120 ns         1 1H9      -0.355100
      9 CAM         17.4350    14.4800    11.4100 c          1 1H9       0.584600
     10 OAN         18.4050    13.8970    10.9490 o          1 1H9      -0.549000
     11 CAL         16.1230    14.5390    10.7610 ca         1 1H9      -0.207600
     12 CAK         15.9500    13.8830     9.5350 ca         1 1H9      -0.010000
     13 CAJ         14.7440    13.9080     8.8850 ca         1 1H9      -0.167000
     14 CAI         13.6580    14.6020     9.4500 ca         1 1H9       0.181100
     15 OAH         12.5230    14.5670     8.7410 os         1 1H9      -0.338100
     16 CAG         11.3620    15.2080     9.2550 c3         1 1H9       0.209900
     17 CAF         10.2510    14.9230     8.2900 ca         1 1H9      -0.097300
     18 CAW          9.8730    15.8770     7.3530 ca         1 1H9      -0.060000
     19 CAB          8.8700    15.5780     6.4420 ca         1 1H9      -0.022900
     20 BR1          8.3570    16.8790     5.1700 br         1 1H9      -0.094100
     21 CAC          8.2370    14.3450     6.4440 ca         1 1H9      -0.071000
     22 CAD          8.6230    13.3960     7.3840 ca         1 1H9      -0.114000
     23 CAE          9.6210    13.6820     8.3010 ca         1 1H9      -0.071000
     24 H1          12.9830    15.7990    11.1050 ha         1 1H9       0.120000
     25 H2          13.3110    16.8670    13.1160 ha         1 1H9       0.136000
     26 H3          14.4560    17.7360    15.2900 h4         1 1H9       0.155000
     27 H4          18.4220    15.1120    13.0800 hn         1 1H9       0.336500
     28 H5          16.7800    13.3470     9.0960 ha         1 1H9       0.139000
     29 H6          14.6140    13.3980     7.9390 ha         1 1H9       0.135000
     30 H7          11.5280    16.2850     9.3530 h1         1 1H9       0.046200
     31 H8          11.1190    14.8100    10.2460 h1         1 1H9       0.046200
     32 H9          10.3650    16.8420     7.3370 ha         1 1H9       0.131000
     33 H10          7.4550    14.1160     5.7330 ha         1 1H9       0.131000
     34 H11          8.1320    12.4330     7.3980 ha         1 1H9       0.121000
     35 H12          9.9090    12.9400     9.0350 ha         1 1H9       0.121000
@<TRIPOS>BOND
     1     1     2 ar  
     2     1    14 ar  
     3     1    24 1   
     4     2     3 1   
     5     2    11 ar  
     6     3     4 1   
     7     3     7 2   
     8     4     5 2   
     9     4    25 1   
    10     5     6 1   
    11     5    26 1   
    12     6     7 1   
    13     7     8 1   
    14     8     9 1   
    15     8    27 1   
    16     9    10 2   
    17     9    11 1   
    18    11    12 ar  
    19    12    13 ar  
    20    12    28 1   
    21    13    14 ar  
    22    13    29 1   
    23    14    15 1   
    24    15    16 1   
    25    16    17 1   
    26    16    30 1   
    27    16    31 1   
    28    17    18 ar  
    29    17    23 ar  
    30    18    19 ar  
    31    18    32 1   
    32    19    20 1   
    33    19    21 ar  
    34    21    22 ar  
    35    21    33 1   
    36    22    23 ar  
    37    22    34 1   
    38    23    35 1   
@<TRIPOS>SUBSTRUCTURE
     1 1H9         1 TEMP              0 ****  ****    0 ROOT
