@<TRIPOS>MOLECULE
1HB
   27    26     1     0     0
SMALL
abcg2


@<TRIPOS>ATOM
      1 C           16.9100    24.8860    33.7710 c3         1 1HB       0.120600
      2 CD          16.5500    20.1420    32.1400 c          1 1HB       0.599100
      3 CG          16.6830    21.0570    33.3420 c3         1 1HB      -0.147400
      4 N           15.7540    23.1770    35.1770 n8         1 1HB      -0.997200
      5 OE1         16.3850    20.5880    31.0100 o          1 1HB      -0.611100
      6 NE2         16.6320    18.8110    32.3530 n          1 1HB      -0.414800
      7 CH1         16.7100    18.1820    33.6550 c3         1 1HB       0.091300
      8 CH2         16.4780    17.9220    31.2180 c3         1 1HB       0.091300
      9 CA          16.8120    23.4290    34.2080 c3         1 1HB       0.152500
     10 CB          16.6290    22.5340    32.9850 c3         1 1HB      -0.059400
     11 O           17.1550    25.6890    34.9060 oh         1 1HB      -0.668000
     12 H1          15.9000    20.8280    34.0690 hc         1 1HB       0.067700
     13 H2          17.6290    20.8420    33.8510 hc         1 1HB       0.067700
     14 H3          15.8730    23.7860    35.9770 hn         1 1HB       0.399000
     15 H4          14.8610    23.4320    34.7680 hn         1 1HB       0.399000
     16 H6          16.9230    18.9010    34.4380 h1         1 1HB       0.039367
     17 H7          15.7750    17.6770    33.9080 h1         1 1HB       0.039367
     18 H8          17.5080    17.4390    33.6650 h1         1 1HB       0.039367
     19 H9          16.7110    16.9080    31.5340 h1         1 1HB       0.039367
     20 H10         15.4590    17.9290    30.8260 h1         1 1HB       0.039367
     21 H11         17.1560    18.1880    30.4090 h1         1 1HB       0.039367
     22 H12         17.7630    23.1600    34.6850 h1         1 1HB       0.069700
     23 H13         17.4080    22.7690    32.2560 hc         1 1HB       0.053200
     24 H14         15.6740    22.7740    32.5070 hc         1 1HB       0.053200
     25 H15         17.0620    26.6100    34.6500 ho         1 1HB       0.447000
     26 H16         17.7130    24.9900    33.0280 h1         1 1HB       0.025200
     27 H17         15.9720    25.1680    33.2720 h1         1 1HB       0.025200
@<TRIPOS>BOND
     1     1     9 1   
     2     1    11 1   
     3     1    26 1   
     4     1    27 1   
     5     2     3 1   
     6     2     5 2   
     7     2     6 1   
     8     3    10 1   
     9     3    12 1   
    10     3    13 1   
    11     4     9 1   
    12     4    14 1   
    13     4    15 1   
    14     6     7 1   
    15     6     8 1   
    16     7    16 1   
    17     7    17 1   
    18     7    18 1   
    19     8    19 1   
    20     8    20 1   
    21     8    21 1   
    22     9    10 1   
    23     9    22 1   
    24    10    23 1   
    25    10    24 1   
    26    11    25 1   
@<TRIPOS>SUBSTRUCTURE
     1 1HB         1 TEMP              0 ****  ****    0 ROOT
