@<TRIPOS>MOLECULE
1HB
   27    26     1     0     0
SMALL
No Charge or Current Charge


@<TRIPOS>ATOM
      1 C           16.8630    24.9840    33.8440 c3         1 1HB       0.120600
      2 CD          16.5570    20.1000    32.0910 c          1 1HB       0.599100
      3 CG          16.6730    21.0420    33.3090 c3         1 1HB      -0.147400
      4 N           15.7120    23.2500    35.2330 n8         1 1HB      -0.997200
      5 OE1         16.4070    20.5460    30.9600 o          1 1HB      -0.611100
      6 NE2         16.6310    18.7030    32.3030 n          1 1HB      -0.414800
      7 CH1         16.7910    18.1200    33.6560 c3         1 1HB       0.091300
      8 CH2         16.5290    17.7710    31.1560 c3         1 1HB       0.091300
      9 CA          16.7850    23.4760    34.2350 c3         1 1HB       0.152500
     10 CB          16.6060    22.5620    32.9960 c3         1 1HB      -0.059400
     11 O           16.9400    25.8150    35.0170 oh         1 1HB      -0.668000
     12 H1          15.9080    20.7430    34.0340 hc         1 1HB       0.067700
     13 H2          17.5910    20.7860    33.8480 hc         1 1HB       0.067700
     14 H3          15.7740    24.0310    35.8980 hn         1 1HB       0.399000
     15 H4          14.8060    23.4140    34.7810 hn         1 1HB       0.399000
     16 H6          17.7350    18.4620    34.1010 h1         1 1HB       0.039367
     17 H7          15.9550    18.4270    34.2970 h1         1 1HB       0.039367
     18 H8          16.8070    17.0240    33.6090 h1         1 1HB       0.039367
     19 H9          16.6540    16.7310    31.4820 h1         1 1HB       0.039367
     20 H10         15.5450    17.8770    30.6820 h1         1 1HB       0.039367
     21 H11         17.3100    18.0040    30.4210 h1         1 1HB       0.039367
     22 H12         17.7430    23.2190    34.7100 h1         1 1HB       0.069700
     23 H13         17.3930    22.8030    32.2700 hc         1 1HB       0.053200
     24 H14         15.6500    22.7910    32.5080 hc         1 1HB       0.053200
     25 H15         17.0010    26.7470    34.7070 ho         1 1HB       0.447000
     26 H16         17.7430    25.1430    33.2060 h1         1 1HB       0.025200
     27 H17         15.9750    25.2500    33.2540 h1         1 1HB       0.025200
@<TRIPOS>BOND
     1     1     9 1   
     2     1    11 1   
     3     1    26 1   
     4     1    27 1   
     5     2     3 1   
     6     2     5 2   
     7     2     6 1   
     8     3    10 1   
     9     3    12 1   
    10     3    13 1   
    11     4     9 1   
    12     4    14 1   
    13     4    15 1   
    14     6     7 1   
    15     6     8 1   
    16     7    16 1   
    17     7    17 1   
    18     7    18 1   
    19     8    19 1   
    20     8    20 1   
    21     8    21 1   
    22     9    10 1   
    23     9    22 1   
    24    10    23 1   
    25    10    24 1   
    26    11    25 1   
@<TRIPOS>SUBSTRUCTURE
     1 1HB         1 TEMP              0 ****  ****    0 ROOT
