@<TRIPOS>MOLECULE
1HC
   10     9     1     0     0
SMALL
bcc


@<TRIPOS>ATOM
      1 C3          -1.9960    -0.0510     0.0310 c2         1 1HC      -0.132000
      2 C2          -0.8110    -0.6490     0.0260 ce         1 1HC      -0.254200
      3 C1           0.4580     0.1290     0.0100 c          1 1HC       0.671300
      4 O            0.4830     1.3530    -0.0030 o          1 1HC      -0.609100
      5 N            1.5660    -0.6270     0.0100 nt         1 1HC      -0.675000
      6 H1          -2.9130    -0.6240     0.0430 ha         1 1HC       0.125500
      7 H2          -2.0900     1.0280     0.0240 ha         1 1HC       0.125500
      8 H3          -0.7440    -1.7310     0.0320 ha         1 1HC       0.123000
      9 H4           1.5260    -1.6320     0.0190 hn         1 1HC       0.312000
     10 H5           2.4780    -0.2010    -0.0020 hn         1 1HC       0.312000
@<TRIPOS>BOND
     1     1     2 2   
     2     1     6 1   
     3     1     7 1   
     4     2     3 1   
     5     2     8 1   
     6     3     4 2   
     7     3     5 1   
     8     5     9 1   
     9     5    10 1   
@<TRIPOS>SUBSTRUCTURE
     1 1HC         1 TEMP              0 ****  ****    0 ROOT
