@<TRIPOS>MOLECULE
1HC
   10     9     1     0     0
SMALL
No Charge or Current Charge


@<TRIPOS>ATOM
      1 C3          -2.0340    -0.0490     0.0310 c2         1 1HC      -0.232000
      2 C2          -0.8080    -0.6300     0.0260 ce         1 1HC      -0.304200
      3 C1           0.4770     0.1220     0.0100 c          1 1HC       0.604300
      4 O            0.5530     1.3380    -0.0010 o          1 1HC      -0.609100
      5 N            1.5890    -0.6360     0.0080 nt         1 1HC      -0.608000
      6 H1          -2.9500    -0.6420     0.0430 ha         1 1HC       0.175500
      7 H2          -2.1600     1.0350     0.0230 ha         1 1HC       0.175500
      8 H3          -0.7200    -1.7160     0.0350 ha         1 1HC       0.173000
      9 H4           1.5160    -1.6420     0.0170 hn         1 1HC       0.312000
     10 H5           2.4920    -0.1860    -0.0030 hn         1 1HC       0.312000
@<TRIPOS>BOND
     1     1     2 2   
     2     1     6 1   
     3     1     7 1   
     4     2     3 1   
     5     2     8 1   
     6     3     4 2   
     7     3     5 1   
     8     5     9 1   
     9     5    10 1   
@<TRIPOS>SUBSTRUCTURE
     1 1HC         1 TEMP              0 ****  ****    0 ROOT
