@<TRIPOS>MOLECULE
1HD
   21    20     1     0     0
SMALL
bcc


@<TRIPOS>ATOM
      1 C            2.5350    -0.6060    -0.0380 c3         1 1HD       0.149400
      2 CD          -2.1520     0.1340    -0.2510 c          1 1HD       0.667100
      3 N            1.1250     1.1720    -0.9440 n8         1 1HD      -0.867800
      4 OE1         -2.1550    -0.3930    -1.3560 o          1 1HD      -0.607100
      5 CA           1.2880     0.2400     0.1560 c3         1 1HD       0.141500
      6 CB           0.0910    -0.6980     0.3730 c3         1 1HD       0.051000
      7 C1          -3.3230     0.9530     0.2350 c3         1 1HD      -0.181100
      8 N1          -1.1330     0.0240     0.6200 ns         1 1HD      -0.579900
      9 O1           3.6740     0.2200    -0.0650 oh         1 1HD      -0.575800
     10 H1           0.9300     0.6630    -1.7990 hn         1 1HD       0.343800
     11 H2           0.3200     1.7620    -0.7780 hn         1 1HD       0.343800
     12 H4           1.4180     0.8300     1.0710 h1         1 1HD       0.066700
     13 H5          -0.0510    -1.3330    -0.5020 h1         1 1HD       0.060700
     14 H6           0.2840    -1.3580     1.2230 h1         1 1HD       0.060700
     15 H7          -4.2180     0.3300     0.2490 hc         1 1HD       0.061367
     16 H8          -3.1820     1.3770     1.2270 hc         1 1HD       0.061367
     17 H9          -3.5080     1.7680    -0.4640 hc         1 1HD       0.061367
     18 H10         -1.2150     0.4900     1.5090 hn         1 1HD       0.312500
     19 H11          4.4450    -0.3450    -0.1720 ho         1 1HD       0.400000
     20 H12          2.5910    -1.3390     0.7780 h1         1 1HD       0.014700
     21 H13          2.4310    -1.1830    -0.9690 h1         1 1HD       0.014700
@<TRIPOS>BOND
     1     1     5 1   
     2     1     9 1   
     3     1    20 1   
     4     1    21 1   
     5     2     4 2   
     6     2     7 1   
     7     2     8 1   
     8     3     5 1   
     9     3    10 1   
    10     3    11 1   
    11     5     6 1   
    12     5    12 1   
    13     6     8 1   
    14     6    13 1   
    15     6    14 1   
    16     7    15 1   
    17     7    16 1   
    18     7    17 1   
    19     8    18 1   
    20     9    19 1   
@<TRIPOS>SUBSTRUCTURE
     1 1HD         1 TEMP              0 ****  ****    0 ROOT
