@<TRIPOS>MOLECULE
1HF
   37    40     1     0     0
SMALL
bcc


@<TRIPOS>ATOM
      1 C9           3.6760     1.2850     0.0080 cc         1 1HF      -0.121600
      2 C10          5.0160     1.3930     0.0010 cf         1 1HF      -0.126800
      3 C13          6.5910    -1.7500    -0.0370 cd         1 1HF       0.254600
      4 C6          -1.0430    -1.6840     0.0000 cc         1 1HF       0.459900
      5 C4          -2.9960     0.0470     0.0240 ca         1 1HF       0.063000
      6 C3          -4.3850     0.1390     0.0310 ca         1 1HF      -0.263500
      7 N1           0.0640     0.2450     0.0180 nf         1 1HF      -0.436700
      8 C2          -5.1720    -1.0070     0.0210 ca         1 1HF       0.013000
      9 C           -3.2240    -2.3600    -0.0050 ca         1 1HF       0.080600
     10 C1          -4.6010    -2.2760     0.0040 ca         1 1HF      -0.210000
     11 C5          -2.4170    -1.2110     0.0050 ca         1 1HF      -0.267900
     12 N            0.0940    -1.1040     0.0050 nf         1 1HF      -0.389700
     13 C7           1.2530     0.7320     0.0160 cc         1 1HF       0.485800
     14 C8          -1.1010    -3.1880    -0.0140 c          1 1HF       0.621200
     15 O           -0.1760    -3.9660    -0.0220 o          1 1HF      -0.590500
     16 N2          -2.4310    -3.4950    -0.0170 ns         1 1HF      -0.480100
     17 S            2.7350    -0.2000    -0.0010 ss         1 1HF      -0.072800
     18 C11          5.9620     0.3330    -0.0140 cd         1 1HF       0.263500
     19 C12          2.8070     2.4740     0.0240 c          1 1HF       0.727700
     20 O1           3.1590     3.6300     0.0330 o          1 1HF      -0.579500
     21 N3           1.4920     2.0640     0.0280 ns         1 1HF      -0.482400
     22 O2           5.5170    -0.9460    -0.0230 os         1 1HF      -0.304800
     23 C14          7.7350    -1.0170    -0.0370 cc         1 1HF      -0.285300
     24 C15          7.3300     0.3400    -0.0220 cc         1 1HF      -0.231300
     25 S1          -5.1470     1.7580    -0.0160 s6         1 1HF       1.262100
     26 O3          -4.2960     2.6110     0.8310 o          1 1HF      -0.690533
     27 O4          -5.1240     2.1490    -1.4360 o          1 1HF      -0.690533
     28 O5          -6.5080     1.5740     0.5140 o          1 1HF      -0.690533
     29 H9           5.4340     2.3930     0.0080 ha         1 1HF       0.159000
     30 H12          6.4020    -2.8120    -0.0460 h4         1 1HF       0.057100
     31 H4          -2.3750     0.9310     0.0430 ha         1 1HF       0.169000
     32 H6          -6.2500    -0.9200     0.0350 ha         1 1HF       0.154000
     33 H7          -5.2230    -3.1610     0.0020 ha         1 1HF       0.123000
     34 H1          -2.7850    -4.4400    -0.0270 hn         1 1HF       0.332500
     35 H8           0.7270     2.7270     0.0350 hn         1 1HF       0.369500
     36 H11          8.7410    -1.4020    -0.0460 ha         1 1HF       0.158000
     37 H10          7.9600     1.2150    -0.0180 ha         1 1HF       0.160000
@<TRIPOS>BOND
     1     1     2 2   
     2     1    17 1   
     3     1    19 1   
     4     2    18 1   
     5     2    29 1   
     6     3    22 1   
     7     3    23 2   
     8     3    30 1   
     9     4    11 1   
    10     4    12 2   
    11     4    14 1   
    12     5     6 ar  
    13     5    11 ar  
    14     5    31 1   
    15     6     8 ar  
    16     6    25 1   
    17     7    12 1   
    18     7    13 2   
    19     8    10 ar  
    20     8    32 1   
    21     9    10 ar  
    22     9    11 ar  
    23     9    16 1   
    24    10    33 1   
    25    13    17 1   
    26    13    21 1   
    27    14    15 2   
    28    14    16 1   
    29    16    34 1   
    30    18    22 1   
    31    18    24 2   
    32    19    20 2   
    33    19    21 1   
    34    21    35 1   
    35    23    24 1   
    36    23    36 1   
    37    24    37 1   
    38    25    26 1   
    39    25    27 1   
    40    25    28 1   
@<TRIPOS>SUBSTRUCTURE
     1 1HF         1 TEMP              0 ****  ****    0 ROOT
