@<TRIPOS>MOLECULE
1HF
   37    40     1     0     0
SMALL
No Charge or Current Charge


@<TRIPOS>ATOM
      1 C9           3.5660     1.1140     0.7530 cc         1 1HF      -0.121600
      2 C10          4.8810     1.3220     0.4120 cf         1 1HF      -0.176800
      3 C13          6.5760    -1.2100    -1.4790 cd         1 1HF       0.144900
      4 C6          -1.2600    -2.0720     0.7110 cc         1 1HF       0.459900
      5 C4          -2.6770    -0.1680    -0.3970 ca         1 1HF       0.081000
      6 C3          -3.9880     0.1670    -0.8100 ca         1 1HF      -0.263500
      7 N1           0.0950    -0.2390     1.2330 nf         1 1HF      -0.436700
      8 C2          -5.0510    -0.7610    -0.6420 ca         1 1HF       0.031000
      9 C           -3.5170    -2.3190     0.3510 ca         1 1HF       0.080600
     10 C1          -4.8170    -2.0230    -0.0550 ca         1 1HF      -0.192000
     11 C5          -2.4730    -1.4250     0.1950 ca         1 1HF      -0.267900
     12 N           -0.0820    -1.4940     0.6610 nf         1 1HF      -0.389700
     13 C7           1.2460     0.3720     1.1610 cc         1 1HF       0.485800
     14 C8          -1.6500    -3.4450     1.1780 c          1 1HF       0.478700
     15 O           -0.9810    -4.3540     1.6610 o          1 1HF      -0.515000
     16 N2          -3.0040    -3.4800     0.9290 ns         1 1HF      -0.413100
     17 S            2.6340    -0.3300     0.3210 ss         1 1HF      -0.072800
     18 C11          5.8230     0.4910    -0.3410 cd         1 1HF       0.153800
     19 C12          2.7730     2.0920     1.5300 c          1 1HF       0.585200
     20 O1           3.1390     3.1730     1.9660 o          1 1HF      -0.504000
     21 N3           1.5300     1.5870     1.6930 ns         1 1HF      -0.415400
     22 O2           5.4490    -0.7340    -0.8470 os         1 1HF      -0.216000
     23 C14          7.6140    -0.3270    -1.3760 cc         1 1HF      -0.202000
     24 C15          7.1280     0.7710    -0.6410 cc         1 1HF      -0.148000
     25 S1          -4.3040     1.8000    -1.6000 s6         1 1HF       1.262100
     26 O3          -3.2750     2.6480    -0.9800 o          1 1HF      -0.690533
     27 O4          -4.0920     1.4720    -3.0170 o          1 1HF      -0.690533
     28 O5          -5.6960     2.0690    -1.2080 o          1 1HF      -0.690533
     29 H9           5.2990     2.2680     0.7600 ha         1 1HF       0.209000
     30 H12          6.5120    -2.1780    -1.9590 h4         1 1HF       0.057100
     31 H4          -1.8490     0.5240    -0.5370 ha         1 1HF       0.151000
     32 H6          -6.0570    -0.5090    -0.9730 ha         1 1HF       0.136000
     33 H7          -5.6240    -2.7410     0.0710 ha         1 1HF       0.105000
     34 H1          -3.5740    -4.2940     1.1290 hn         1 1HF       0.332500
     35 H8           0.8400     2.1160     2.2020 hn         1 1HF       0.369500
     36 H11          8.6170    -0.4400    -1.7770 ha         1 1HF       0.140000
     37 H10          7.6900     1.6600    -0.3720 ha         1 1HF       0.142000
@<TRIPOS>BOND
     1     1     2 2   
     2     1    17 1   
     3     1    19 1   
     4     2    18 1   
     5     2    29 1   
     6     3    22 1   
     7     3    23 2   
     8     3    30 1   
     9     4    11 1   
    10     4    12 2   
    11     4    14 1   
    12     5     6 ar  
    13     5    11 ar  
    14     5    31 1   
    15     6     8 ar  
    16     6    25 1   
    17     7    12 1   
    18     7    13 2   
    19     8    10 ar  
    20     8    32 1   
    21     9    10 ar  
    22     9    11 ar  
    23     9    16 1   
    24    10    33 1   
    25    13    17 1   
    26    13    21 1   
    27    14    15 2   
    28    14    16 1   
    29    16    34 1   
    30    18    22 1   
    31    18    24 2   
    32    19    20 2   
    33    19    21 1   
    34    21    35 1   
    35    23    24 1   
    36    23    36 1   
    37    24    37 1   
    38    25    26 1   
    39    25    27 1   
    40    25    28 1   
@<TRIPOS>SUBSTRUCTURE
     1 1HF         1 TEMP              0 ****  ****    0 ROOT
