@<TRIPOS>MOLECULE
1HG
   45    47     1     0     0
SMALL
No Charge or Current Charge


@<TRIPOS>ATOM
      1 C1          -3.1580    -0.9240     0.6080 c6         1 1HG       0.074300
      2 C2          -3.7040     0.1620    -0.3490 c6         1 1HG       0.143300
      3 O3          -2.7220    -2.0750    -0.1620 os         1 1HG      -0.463600
      4 C4          -2.1210    -1.8830    -1.3690 c2         1 1HG       0.832500
      5 N5          -2.0200    -0.7660    -1.9750 n2         1 1HG      -0.760900
      6 C6          -2.5690     0.4880    -1.3850 c6         1 1HG       0.217500
      7 C7          -1.4370     1.3300    -0.7010 ca         1 1HG      -0.107300
      8 C8          -0.1010     0.8500    -0.6150 ca         1 1HG      -0.124000
      9 C9           0.9210     1.5940     0.0070 ca         1 1HG      -0.035000
     10 C10          0.6150     2.8530     0.5600 ca         1 1HG      -0.103000
     11 C11         -0.6950     3.3490     0.4850 ca         1 1HG      -0.125000
     12 C12         -1.7070     2.6030    -0.1340 ca         1 1HG       0.144000
     13 F13         -2.9470     3.1390    -0.1660 f          1 1HG      -0.182000
     14 N14         -1.6400    -3.0300    -1.8440 nv         1 1HG      -1.013200
     15 C15         -3.1280     1.2840    -2.6060 c3         1 1HG      -0.071100
     16 N16          2.2230     1.0180     0.0370 ns         1 1HG      -0.123000
     17 C17          3.4360     1.4460     0.5700 c          1 1HG       0.513600
     18 C18          4.5950     0.4700     0.3500 ca         1 1HG       0.302500
     19 O19          3.5760     2.5130     1.1680 o          1 1HG      -0.577100
     20 N20          4.3670    -0.7000    -0.3230 nb         1 1HG      -0.684000
     21 C21          5.4020    -1.5570    -0.5110 ca         1 1HG       0.379900
     22 C22          6.7020    -1.2990    -0.0480 ca         1 1HG      -0.048000
     23 C23          6.9500    -0.1010     0.6440 ca         1 1HG      -0.043000
     24 C24          5.8810     0.7900     0.8420 ca         1 1HG      -0.103000
     25 C25          7.7470    -2.2500    -0.2840 cg         1 1HG       0.315000
     26 N26          8.6060    -3.0180    -0.4700 n1         1 1HG      -0.422000
     27 C27         -4.1590    -1.3840     1.7160 c3         1 1HG       0.318000
     28 F28         -5.2220    -2.0520     1.2100 f          1 1HG      -0.101667
     29 F29         -3.5580    -2.2090     2.6050 f          1 1HG      -0.101667
     30 F30         -4.6400    -0.3310     2.4150 f          1 1HG      -0.101667
     31 F31         -4.8360    -0.3500    -1.0290 f          1 1HG      -0.236000
     32 H1          -2.2770    -0.5110     1.1230 h1         1 1HG       0.092700
     33 H2          -4.0290     1.0510     0.2050 h1         1 1HG       0.099700
     34 H3           0.1680    -0.1160    -1.0330 ha         1 1HG       0.131000
     35 H4           1.3700     3.4620     1.0460 ha         1 1HG       0.154000
     36 H5          -0.9300     4.3210     0.9120 ha         1 1HG       0.138000
     37 H6          -1.4400    -3.6740    -1.0930 hn         1 1HG       0.492000
     38 H7          -0.8760    -2.8680    -2.4830 hn         1 1HG       0.492000
     39 H8          -3.6940     2.1710    -2.3040 hc         1 1HG       0.054700
     40 H9          -2.3150     1.6180    -3.2620 hc         1 1HG       0.054700
     41 H10         -3.8030     0.6700    -3.2130 hc         1 1HG       0.054700
     42 H11          2.2860     0.1160    -0.4200 hn         1 1HG       0.184000
     43 H12          5.1730    -2.4750    -1.0520 h4         1 1HG       0.037100
     44 H13          7.9440     0.1350     1.0190 ha         1 1HG       0.141000
     45 H14          6.0470     1.7230     1.3750 ha         1 1HG       0.159000
@<TRIPOS>BOND
     1     1     2 1   
     2     1     3 1   
     3     1    27 1   
     4     1    32 1   
     5     2     6 1   
     6     2    31 1   
     7     2    33 1   
     8     3     4 1   
     9     4     5 2   
    10     4    14 1   
    11     5     6 1   
    12     6     7 1   
    13     6    15 1   
    14     7     8 ar  
    15     7    12 ar  
    16     8     9 ar  
    17     8    34 1   
    18     9    10 ar  
    19     9    16 1   
    20    10    11 ar  
    21    10    35 1   
    22    11    12 ar  
    23    11    36 1   
    24    12    13 1   
    25    14    37 1   
    26    14    38 1   
    27    15    39 1   
    28    15    40 1   
    29    15    41 1   
    30    16    17 1   
    31    16    42 1   
    32    17    18 1   
    33    17    19 2   
    34    18    20 ar  
    35    18    24 ar  
    36    20    21 ar  
    37    21    22 ar  
    38    21    43 1   
    39    22    23 ar  
    40    22    25 1   
    41    23    24 ar  
    42    23    44 1   
    43    24    45 1   
    44    25    26 3   
    45    27    28 1   
    46    27    29 1   
    47    27    30 1   
@<TRIPOS>SUBSTRUCTURE
     1 1HG         1 TEMP              0 ****  ****    0 ROOT
