@<TRIPOS>MOLECULE
1HG
   45    47     1     0     0
SMALL
abcg2


@<TRIPOS>ATOM
      1 C1          -3.0530    -0.8830     0.6120 c6         1 1HG       0.074300
      2 C2          -3.5880     0.1600    -0.3480 c6         1 1HG       0.143300
      3 O3          -2.6590    -2.0420    -0.0870 os         1 1HG      -0.463600
      4 C4          -2.0670    -1.8470    -1.2860 c2         1 1HG       0.832500
      5 N5          -1.9100    -0.7400    -1.8890 n2         1 1HG      -0.760900
      6 C6          -2.4800     0.4800    -1.3640 c6         1 1HG       0.217500
      7 C7          -1.3960     1.3120    -0.6700 ca         1 1HG      -0.107300
      8 C8          -0.0900     0.8480    -0.5980 ca         1 1HG      -0.124000
      9 C9           0.9360     1.5780     0.0050 ca         1 1HG      -0.035000
     10 C10          0.6520     2.8240     0.5590 ca         1 1HG      -0.103000
     11 C11         -0.6440     3.3080     0.4920 ca         1 1HG      -0.125000
     12 C12         -1.6340     2.5640    -0.1130 ca         1 1HG       0.144000
     13 F13         -2.8740     3.0920    -0.1460 f          1 1HG      -0.182000
     14 N14         -1.6840    -3.0290    -1.8190 nv         1 1HG      -1.013200
     15 C15         -3.0420     1.2570    -2.5640 c3         1 1HG      -0.071100
     16 N16          2.2000     0.9850     0.0020 ns         1 1HG      -0.123000
     17 C17          3.3490     1.4330     0.5400 c          1 1HG       0.513600
     18 C18          4.5050     0.4900     0.3400 ca         1 1HG       0.302500
     19 O19          3.4990     2.4820     1.1420 o          1 1HG      -0.577100
     20 N20          4.2670    -0.6370    -0.3230 nb         1 1HG      -0.684000
     21 C21          5.2520    -1.4890    -0.5140 ca         1 1HG       0.379900
     22 C22          6.5430    -1.2440    -0.0410 ca         1 1HG      -0.048000
     23 C23          6.7960    -0.0660     0.6520 ca         1 1HG      -0.043000
     24 C24          5.7540     0.8210     0.8470 ca         1 1HG      -0.103000
     25 C25          7.5760    -2.1980    -0.2720 cg         1 1HG       0.315000
     26 N26          8.4080    -2.9710    -0.4600 n1         1 1HG      -0.422000
     27 C27         -4.0470    -1.3540     1.6630 c3         1 1HG       0.318000
     28 F28         -5.0950    -1.9930     1.1480 f          1 1HG      -0.101667
     29 F29         -3.4620    -2.1900     2.5260 f          1 1HG      -0.101667
     30 F30         -4.5050    -0.3090     2.3600 f          1 1HG      -0.101667
     31 F31         -4.6740    -0.3760    -1.0240 f          1 1HG      -0.236000
     32 H1          -2.2010    -0.4500     1.1510 h1         1 1HG       0.092700
     33 H2          -3.9310     1.0440     0.1860 h1         1 1HG       0.099700
     34 H3           0.1410    -0.1150    -1.0340 ha         1 1HG       0.131000
     35 H4           1.4140     3.4180     1.0350 ha         1 1HG       0.154000
     36 H5          -0.8860     4.2740     0.9150 ha         1 1HG       0.138000
     37 H6          -1.4820    -3.7940    -1.1960 hn         1 1HG       0.492000
     38 H7          -1.0900    -2.9730    -2.6300 hn         1 1HG       0.492000
     39 H8          -3.5730     2.1600    -2.2720 hc         1 1HG       0.054700
     40 H9          -2.2180     1.5390    -3.2190 hc         1 1HG       0.054700
     41 H10         -3.7200     0.6270    -3.1360 hc         1 1HG       0.054700
     42 H11          2.2720     0.0860    -0.4590 hn         1 1HG       0.184000
     43 H12          5.0260    -2.3980    -1.0570 h4         1 1HG       0.037100
     44 H13          7.7860     0.1510     1.0300 ha         1 1HG       0.141000
     45 H14          5.9100     1.7470     1.3810 ha         1 1HG       0.159000
@<TRIPOS>BOND
     1     1     2 1   
     2     1     3 1   
     3     1    27 1   
     4     1    32 1   
     5     2     6 1   
     6     2    31 1   
     7     2    33 1   
     8     3     4 1   
     9     4     5 2   
    10     4    14 1   
    11     5     6 1   
    12     6     7 1   
    13     6    15 1   
    14     7     8 ar  
    15     7    12 ar  
    16     8     9 ar  
    17     8    34 1   
    18     9    10 ar  
    19     9    16 1   
    20    10    11 ar  
    21    10    35 1   
    22    11    12 ar  
    23    11    36 1   
    24    12    13 1   
    25    14    37 1   
    26    14    38 1   
    27    15    39 1   
    28    15    40 1   
    29    15    41 1   
    30    16    17 1   
    31    16    42 1   
    32    17    18 1   
    33    17    19 2   
    34    18    20 ar  
    35    18    24 ar  
    36    20    21 ar  
    37    21    22 ar  
    38    21    43 1   
    39    22    23 ar  
    40    22    25 1   
    41    23    24 ar  
    42    23    44 1   
    43    24    45 1   
    44    25    26 3   
    45    27    28 1   
    46    27    29 1   
    47    27    30 1   
@<TRIPOS>SUBSTRUCTURE
     1 1HG         1 TEMP              0 ****  ****    0 ROOT
