@<TRIPOS>MOLECULE
1HH
   45    47     1     0     0
SMALL
No Charge or Current Charge


@<TRIPOS>ATOM
      1 C8           1.0080     3.0430    -0.2830 ca         1 1HH      -0.099000
      2 C3          -4.0080    -1.2090     0.0510 c6         1 1HH       0.082300
      3 C5          -2.2570    -2.0810    -1.3930 c2         1 1HH       0.832500
      4 C9          -0.2700     3.5680    -0.5200 ca         1 1HH      -0.137000
      5 C11          0.1170     0.8050    -0.5910 ca         1 1HH      -0.110000
      6 C14         -1.1810     1.3140    -0.8630 ca         1 1HH      -0.088300
      7 C7           1.2100     1.6490    -0.3110 ca         1 1HH      -0.043000
      8 C2          -3.1150     0.0440     0.1980 c6         1 1HH       0.148300
      9 C21          3.7310     1.5400     0.2360 c          1 1HH       0.512600
     10 C22          4.8090     0.4680     0.4220 ca         1 1HH       0.303500
     11 C12         -3.3190     0.8340    -2.2730 c3         1 1HH      -0.101100
     12 C10         -1.3540     2.7220    -0.7980 ca         1 1HH       0.162000
     13 C1          -2.3570     0.3210    -1.1460 c6         1 1HH       0.218500
     14 O4          -3.2000    -2.3090    -0.4420 os         1 1HH      -0.477600
     15 N6          -1.8220    -0.9360    -1.7380 n2         1 1HH      -0.756900
     16 F13         -2.5600     3.3030    -0.9730 f          1 1HH      -0.175000
     17 F18         -3.9140     1.1550     0.5480 f          1 1HH      -0.231000
     18 N19         -1.7960    -3.2270    -1.8830 nv         1 1HH      -1.020200
     19 N20          2.4690     1.0320    -0.0640 ns         1 1HH      -0.123000
     20 O23          3.9700     2.7420     0.3440 o          1 1HH      -0.580100
     21 C24          6.1330     0.8540     0.7300 ca         1 1HH      -0.105000
     22 C25          7.1270    -0.1250     0.9030 ca         1 1HH      -0.043000
     23 C26          6.7670    -1.4760     0.7620 ca         1 1HH      -0.051000
     24 C27          5.4340    -1.7930     0.4570 ca         1 1HH       0.380900
     25 N28          4.4700    -0.8520     0.2890 nb         1 1HH      -0.682000
     26 C29          7.7310    -2.5220     0.9260 cg         1 1HH       0.317000
     27 N30          8.5250    -3.3670     1.0610 n1         1 1HH      -0.426000
     28 C31         -4.7020    -1.6610     1.3770 c3         1 1HH       0.297000
     29 H1           1.8180     3.7340    -0.0710 ha         1 1HH       0.151000
     30 H2          -4.7970    -0.9990    -0.6850 h1         1 1HH       0.112700
     31 H3          -0.4270     4.6440    -0.4800 ha         1 1HH       0.135000
     32 H4           0.2920    -0.2680    -0.5910 ha         1 1HH       0.143000
     33 H5          -2.3880    -0.1100     1.0080 h1         1 1HH       0.090700
     34 H6          -2.7500     1.2080    -3.1330 hc         1 1HH       0.053700
     35 H7          -3.9760     0.0380    -2.6450 hc         1 1HH       0.053700
     36 H8          -3.9850     1.6370    -1.9420 hc         1 1HH       0.053700
     37 H9          -1.4250    -3.0890    -2.8120 hn         1 1HH       0.494500
     38 H10         -2.4840    -3.9620    -1.8060 hn         1 1HH       0.494500
     39 H11          2.4510     0.0200    -0.1160 hn         1 1HH       0.185000
     40 H12          6.3870     1.9060     0.8330 ha         1 1HH       0.158000
     41 H13          8.1510     0.1620     1.1390 ha         1 1HH       0.139000
     42 H14          5.1180    -2.8290     0.3410 h4         1 1HH       0.037100
     43 F15         -3.8040    -1.8960     2.3620 f          1 1HH      -0.103333
     44 F16         -5.5710    -0.7320     1.8380 f          1 1HH      -0.103333
     45 F17         -5.4070    -2.8030     1.2000 f          1 1HH      -0.103333
@<TRIPOS>BOND
     1     1     4 ar  
     2     1     7 ar  
     3     1    29 1   
     4     2     8 1   
     5     2    14 1   
     6     2    28 1   
     7     2    30 1   
     8     3    14 1   
     9     3    15 2   
    10     3    18 1   
    11     4    12 ar  
    12     4    31 1   
    13     5     6 ar  
    14     5     7 ar  
    15     5    32 1   
    16     6    12 ar  
    17     6    13 1   
    18     7    19 1   
    19     8    13 1   
    20     8    17 1   
    21     8    33 1   
    22     9    10 1   
    23     9    19 1   
    24     9    20 2   
    25    10    21 ar  
    26    10    25 ar  
    27    11    13 1   
    28    11    34 1   
    29    11    35 1   
    30    11    36 1   
    31    12    16 1   
    32    13    15 1   
    33    18    37 1   
    34    18    38 1   
    35    19    39 1   
    36    21    22 ar  
    37    21    40 1   
    38    22    23 ar  
    39    22    41 1   
    40    23    24 ar  
    41    23    26 1   
    42    24    25 ar  
    43    24    42 1   
    44    26    27 3   
    45    28    43 1   
    46    28    44 1   
    47    28    45 1   
@<TRIPOS>SUBSTRUCTURE
     1 1HH         1 TEMP              0 ****  ****    0 ROOT
