@<TRIPOS>MOLECULE
1HH
   45    47     1     0     0
SMALL
abcg2


@<TRIPOS>ATOM
      1 C8           1.0120     3.0040    -0.2390 ca         1 1HH      -0.099000
      2 C3          -4.0950    -1.0150    -0.0220 c6         1 1HH       0.082300
      3 C5          -2.3590    -2.0500    -1.2720 c2         1 1HH       0.832500
      4 C9          -0.2530     3.5040    -0.4940 ca         1 1HH      -0.137000
      5 C11          0.1430     0.7980    -0.6250 ca         1 1HH      -0.110000
      6 C14         -1.1340     1.2780    -0.8820 ca         1 1HH      -0.088300
      7 C7           1.2150     1.6290    -0.3050 ca         1 1HH      -0.043000
      8 C2          -3.0680     0.1090     0.1340 c6         1 1HH       0.148300
      9 C21          3.6070     1.5250     0.3410 c          1 1HH       0.512600
     10 C22          4.7000     0.4960     0.4590 ca         1 1HH       0.303500
     11 C12         -3.1390     0.6910    -2.3490 c3         1 1HH      -0.101100
     12 C10         -1.2990     2.6570    -0.8030 ca         1 1HH       0.162000
     13 C1          -2.2600     0.2780    -1.1600 c6         1 1HH       0.218500
     14 O4          -3.6200    -2.0980    -0.7910 os         1 1HH      -0.477600
     15 N6          -1.6600    -1.0060    -1.4440 n2         1 1HH      -0.756900
     16 F13         -2.4910     3.2280    -1.0360 f          1 1HH      -0.175000
     17 F18         -3.7650     1.2530     0.4630 f          1 1HH      -0.231000
     18 N19         -1.9050    -3.2910    -1.5560 nv         1 1HH      -1.020200
     19 N20          2.4430     1.0010    -0.0830 ns         1 1HH      -0.123000
     20 O23          3.8160     2.6930     0.6140 o          1 1HH      -0.580100
     21 C24          5.9560     0.8760     0.9070 ca         1 1HH      -0.105000
     22 C25          6.9390    -0.0910     0.9970 ca         1 1HH      -0.043000
     23 C26          6.6220    -1.3950     0.6330 ca         1 1HH      -0.051000
     24 C27          5.3270    -1.6810     0.1980 ca         1 1HH       0.380900
     25 N28          4.3980    -0.7520     0.1180 nb         1 1HH      -0.682000
     26 C29          7.5950    -2.4340     0.6970 cg         1 1HH       0.317000
     27 N30          8.3790    -3.2750     0.7500 n1         1 1HH      -0.426000
     28 C31         -4.5130    -1.6150     1.3170 c3         1 1HH       0.297000
     29 H1           1.8120     3.6850     0.0000 ha         1 1HH       0.151000
     30 H2          -4.9890    -0.6120    -0.5080 h1         1 1HH       0.112700
     31 H3          -0.4320     4.5700    -0.4480 ha         1 1HH       0.135000
     32 H4           0.2910    -0.2720    -0.6870 ha         1 1HH       0.143000
     33 H5          -2.3650    -0.0950     0.9460 h1         1 1HH       0.090700
     34 H6          -2.5140     0.8210    -3.2320 hc         1 1HH       0.053700
     35 H7          -3.8620    -0.0910    -2.5800 hc         1 1HH       0.053700
     36 H8          -3.6910     1.6110    -2.1840 hc         1 1HH       0.053700
     37 H9          -1.1230    -3.3470    -2.1840 hn         1 1HH       0.494500
     38 H10         -2.5640    -4.0450    -1.6270 hn         1 1HH       0.494500
     39 H11          2.4770     0.0020    -0.2450 hn         1 1HH       0.185000
     40 H12          6.1640     1.9000     1.1780 ha         1 1HH       0.158000
     41 H13          7.9320     0.1620     1.3410 ha         1 1HH       0.139000
     42 H14          5.0510    -2.6870    -0.0900 h4         1 1HH       0.037100
     43 F15         -3.4760    -2.1970     1.9280 f          1 1HH      -0.103333
     44 F16         -4.9960    -0.6810     2.1350 f          1 1HH      -0.103333
     45 F17         -5.4540    -2.5440     1.1530 f          1 1HH      -0.103333
@<TRIPOS>BOND
     1     1     4 ar  
     2     1     7 ar  
     3     1    29 1   
     4     2     8 1   
     5     2    14 1   
     6     2    28 1   
     7     2    30 1   
     8     3    14 1   
     9     3    15 2   
    10     3    18 1   
    11     4    12 ar  
    12     4    31 1   
    13     5     6 ar  
    14     5     7 ar  
    15     5    32 1   
    16     6    12 ar  
    17     6    13 1   
    18     7    19 1   
    19     8    13 1   
    20     8    17 1   
    21     8    33 1   
    22     9    10 1   
    23     9    19 1   
    24     9    20 2   
    25    10    21 ar  
    26    10    25 ar  
    27    11    13 1   
    28    11    34 1   
    29    11    35 1   
    30    11    36 1   
    31    12    16 1   
    32    13    15 1   
    33    18    37 1   
    34    18    38 1   
    35    19    39 1   
    36    21    22 ar  
    37    21    40 1   
    38    22    23 ar  
    39    22    41 1   
    40    23    24 ar  
    41    23    26 1   
    42    24    25 ar  
    43    24    42 1   
    44    26    27 3   
    45    28    43 1   
    46    28    44 1   
    47    28    45 1   
@<TRIPOS>SUBSTRUCTURE
     1 1HH         1 TEMP              0 ****  ****    0 ROOT
