@<TRIPOS>MOLECULE
1HI
   29    31     1     0     0
SMALL
No Charge or Current Charge


@<TRIPOS>ATOM
      1 C4           9.5990    16.1060   -18.4700 ca         1 1HI      -0.094000
      2 C5           7.9170    14.6410   -17.4540 ca         1 1HI      -0.127000
      3 C6           9.1040    14.8110   -18.2080 ca         1 1HI      -0.093000
      4 C8           8.1380    19.1070   -17.4030 cc         1 1HI       0.543600
      5 C10          8.1060    20.6130   -17.3200 c6         1 1HI      -0.114000
      6 C13          8.4200    23.3890   -17.6680 c6         1 1HI       0.148800
      7 C15          7.8220    21.2240   -18.7250 c6         1 1HI       0.162800
      8 C1           7.7360    17.0390   -17.2340 ca         1 1HI       0.054400
      9 C11          9.4120    21.1900   -16.7090 c6         1 1HI      -0.073400
     10 C12          9.3190    22.7370   -16.5800 c6         1 1HI      -0.116400
     11 C2           8.8780    17.1930   -17.9610 ca         1 1HI       0.028100
     12 C3           7.2190    15.7650   -16.9580 ca         1 1HI      -0.046000
     13 N14          8.4160    22.5810   -18.9090 n7         1 1HI      -0.848400
     14 N7           7.2360    18.2670   -16.8610 nd         1 1HI      -0.570100
     15 O9           9.1830    18.5040   -18.0990 os         1 1HI      -0.285700
     16 H1          10.5090    16.2570   -19.0470 ha         1 1HI       0.133000
     17 H2           7.5400    13.6410   -17.2560 ha         1 1HI       0.118000
     18 H3           9.6350    13.9400   -18.5870 ha         1 1HI       0.118000
     19 H4           7.2780    20.9010   -16.6580 hc         1 1HI       0.087700
     20 H5           8.7750    24.4100   -17.8780 h1         1 1HI       0.055200
     21 H6           7.3900    23.4750   -17.2900 h1         1 1HI       0.055200
     22 H7           6.7320    21.2780   -18.8680 h1         1 1HI       0.059700
     23 H8           8.2120    20.5640   -19.5150 h1         1 1HI       0.059700
     24 H9           9.6110    20.7420   -15.7260 hc         1 1HI       0.052700
     25 H10         10.2670    20.9260   -17.3480 hc         1 1HI       0.052700
     26 H11         10.3310    23.1630   -16.6320 hc         1 1HI       0.047700
     27 H12          8.9280    23.0080   -15.5900 hc         1 1HI       0.047700
     28 H13          6.3070    15.6480   -16.3780 ha         1 1HI       0.134000
     29 H14          9.3960    22.4650   -19.1950 hn         1 1HI       0.410000
@<TRIPOS>BOND
     1     1     3 ar  
     2     1    11 ar  
     3     1    16 1   
     4     2     3 ar  
     5     2    12 ar  
     6     2    17 1   
     7     3    18 1   
     8     4     5 1   
     9     4    14 2   
    10     4    15 1   
    11     5     7 1   
    12     5     9 1   
    13     5    19 1   
    14     6    10 1   
    15     6    13 1   
    16     6    20 1   
    17     6    21 1   
    18     7    13 1   
    19     7    22 1   
    20     7    23 1   
    21     8    11 ar  
    22     8    12 ar  
    23     8    14 1   
    24     9    10 1   
    25     9    24 1   
    26     9    25 1   
    27    10    26 1   
    28    10    27 1   
    29    11    15 1   
    30    12    28 1   
    31    13    29 1   
@<TRIPOS>SUBSTRUCTURE
     1 1HI         1 TEMP              0 ****  ****    0 ROOT
