@<TRIPOS>MOLECULE
1HI
   29    31     1     0     0
SMALL
abcg2


@<TRIPOS>ATOM
      1 C4           9.6230    16.1230   -18.4280 ca         1 1HI      -0.094000
      2 C5           7.8970    14.7080   -17.4520 ca         1 1HI      -0.127000
      3 C6           9.0910    14.8660   -18.1640 ca         1 1HI      -0.093000
      4 C8           8.1370    19.1280   -17.3870 cc         1 1HI       0.543600
      5 C10          8.1490    20.6070   -17.3290 c6         1 1HI      -0.114000
      6 C13          8.4000    23.3140   -17.6400 c6         1 1HI       0.148800
      7 C15          7.8490    21.2360   -18.7220 c6         1 1HI       0.162800
      8 C1           7.7070    17.0600   -17.2330 ca         1 1HI       0.054400
      9 C11          9.4640    21.1800   -16.7930 c6         1 1HI      -0.073400
     10 C12          9.3020    22.6850   -16.5610 c6         1 1HI      -0.116400
     11 C2           8.8950    17.1900   -17.9430 ca         1 1HI       0.028100
     12 C3           7.1840    15.7980   -16.9750 ca         1 1HI      -0.046000
     13 N14          8.4020    22.5690   -18.8880 n7         1 1HI      -0.848400
     14 N7           7.2580    18.3260   -16.8990 nd         1 1HI      -0.570100
     15 O9           9.1590    18.5170   -18.0370 os         1 1HI      -0.285700
     16 H1          10.5460    16.2490   -18.9760 ha         1 1HI       0.133000
     17 H2           7.5230    13.7090   -17.2710 ha         1 1HI       0.118000
     18 H3           9.6160    13.9890   -18.5170 ha         1 1HI       0.118000
     19 H4           7.3470    20.8770   -16.6370 hc         1 1HI       0.087700
     20 H5           8.7010    24.3440   -17.8370 h1         1 1HI       0.055200
     21 H6           7.3670    23.3610   -17.2860 h1         1 1HI       0.055200
     22 H7           6.7640    21.2670   -18.8570 h1         1 1HI       0.059700
     23 H8           8.2490    20.6060   -19.5180 h1         1 1HI       0.059700
     24 H9           9.7550    20.6820   -15.8660 hc         1 1HI       0.052700
     25 H10         10.2640    20.9920   -17.5130 hc         1 1HI       0.052700
     26 H11         10.2860    23.1570   -16.5650 hc         1 1HI       0.047700
     27 H12          8.8730    22.8680   -15.5720 hc         1 1HI       0.047700
     28 H13          6.2610    15.6740   -16.4250 ha         1 1HI       0.134000
     29 H14          9.3490    22.5040   -19.2380 hn         1 1HI       0.410000
@<TRIPOS>BOND
     1     1     3 ar  
     2     1    11 ar  
     3     1    16 1   
     4     2     3 ar  
     5     2    12 ar  
     6     2    17 1   
     7     3    18 1   
     8     4     5 1   
     9     4    14 2   
    10     4    15 1   
    11     5     7 1   
    12     5     9 1   
    13     5    19 1   
    14     6    10 1   
    15     6    13 1   
    16     6    20 1   
    17     6    21 1   
    18     7    13 1   
    19     7    22 1   
    20     7    23 1   
    21     8    11 ar  
    22     8    12 ar  
    23     8    14 1   
    24     9    10 1   
    25     9    24 1   
    26     9    25 1   
    27    10    26 1   
    28    10    27 1   
    29    11    15 1   
    30    12    28 1   
    31    13    29 1   
@<TRIPOS>SUBSTRUCTURE
     1 1HI         1 TEMP              0 ****  ****    0 ROOT
