@<TRIPOS>MOLECULE
1HJ
   45    47     1     0     0
SMALL
abcg2


@<TRIPOS>ATOM
      1 C1          -4.3710    -0.8980    -0.0270 c6         1 1HJ       0.113300
      2 C2          -3.4650     0.3040     0.1460 c6         1 1HJ      -0.140400
      3 O3          -3.6290    -2.1000    -0.0720 os         1 1HJ      -0.472600
      4 C4          -2.4440    -2.0480    -0.7150 c2         1 1HJ       0.830500
      5 N5          -1.8660    -1.0180    -1.1770 n2         1 1HJ      -0.769900
      6 C6          -2.4070     0.3050    -0.9730 c6         1 1HJ       0.244500
      7 C7          -1.2570     1.2340    -0.5710 ca         1 1HJ      -0.081300
      8 C8           0.0430     0.7590    -0.4890 ca         1 1HJ      -0.111000
      9 C9           1.1200     1.5700    -0.1250 ca         1 1HJ      -0.040000
     10 C10          0.8960     2.9130     0.1660 ca         1 1HJ      -0.106000
     11 C11         -0.3970     3.4080     0.0890 ca         1 1HJ      -0.130000
     12 C12         -1.4380     2.5800    -0.2700 ca         1 1HJ       0.141000
     13 F13         -2.6720     3.1230    -0.3170 f          1 1HJ      -0.187000
     14 N14         -1.8890    -3.2850    -0.7770 nv         1 1HJ      -1.013200
     15 C15         -2.9930     0.7810    -2.3100 c3         1 1HJ      -0.089100
     16 N16          2.3720     0.9490    -0.0750 ns         1 1HJ      -0.121000
     17 C17          3.5690     1.4730     0.2410 c          1 1HJ       0.512600
     18 C18          4.6880     0.4650     0.1940 ca         1 1HJ       0.304500
     19 O19          3.7900     2.6320     0.5440 o          1 1HJ      -0.581100
     20 N20          4.3760    -0.7790    -0.1530 nb         1 1HJ      -0.681000
     21 C21          5.3270    -1.6880    -0.2040 ca         1 1HJ       0.380900
     22 C22          6.6560    -1.3840     0.0970 ca         1 1HJ      -0.051000
     23 C23          6.9860    -0.0830     0.4620 ca         1 1HJ      -0.043000
     24 C24          5.9790     0.8620     0.5110 ca         1 1HJ      -0.106000
     25 C25          7.6500    -2.4040     0.0280 cg         1 1HJ       0.317000
     26 N26          8.4490    -3.2300    -0.0310 n1         1 1HJ      -0.426000
     27 C27         -5.3430    -1.0760     1.1270 c3         1 1HJ       0.308000
     28 F28         -6.1250    -2.1440     0.9490 f          1 1HJ      -0.106000
     29 F29         -4.7190    -1.2370     2.2960 f          1 1HJ      -0.106000
     30 F30         -6.1390    -0.0080     1.2370 f          1 1HJ      -0.106000
     31 H1          -4.9690    -0.8020    -0.9410 h1         1 1HJ       0.083700
     32 H2          -4.0670     1.2100     0.1200 hc         1 1HJ       0.086700
     33 H3          -2.9670     0.2600     1.1180 hc         1 1HJ       0.086700
     34 H4           0.2110    -0.2850    -0.7190 ha         1 1HJ       0.143000
     35 H5           1.6980     3.5740     0.4490 ha         1 1HJ       0.151000
     36 H6          -0.5930     4.4480     0.3130 ha         1 1HJ       0.134000
     37 H7          -2.5080    -4.0800    -0.7880 hn         1 1HJ       0.486000
     38 H8          -1.0900    -3.3700    -1.3830 hn         1 1HJ       0.486000
     39 H9          -3.3670     1.8020    -2.2590 hc         1 1HJ       0.046700
     40 H10         -2.2270     0.7360    -3.0850 hc         1 1HJ       0.046700
     41 H11         -3.8170     0.1400    -2.6260 hc         1 1HJ       0.046700
     42 H12          2.3890    -0.0380    -0.3000 hn         1 1HJ       0.185000
     43 H13          5.0420    -2.6920    -0.4910 h4         1 1HJ       0.037100
     44 H14          8.0070     0.1820     0.7010 ha         1 1HJ       0.139000
     45 H15          6.1940     1.8830     0.7900 ha         1 1HJ       0.158000
@<TRIPOS>BOND
     1     1     2 1   
     2     1     3 1   
     3     1    27 1   
     4     1    31 1   
     5     2     6 1   
     6     2    32 1   
     7     2    33 1   
     8     3     4 1   
     9     4     5 2   
    10     4    14 1   
    11     5     6 1   
    12     6     7 1   
    13     6    15 1   
    14     7     8 ar  
    15     7    12 ar  
    16     8     9 ar  
    17     8    34 1   
    18     9    10 ar  
    19     9    16 1   
    20    10    11 ar  
    21    10    35 1   
    22    11    12 ar  
    23    11    36 1   
    24    12    13 1   
    25    14    37 1   
    26    14    38 1   
    27    15    39 1   
    28    15    40 1   
    29    15    41 1   
    30    16    17 1   
    31    16    42 1   
    32    17    18 1   
    33    17    19 2   
    34    18    20 ar  
    35    18    24 ar  
    36    20    21 ar  
    37    21    22 ar  
    38    21    43 1   
    39    22    23 ar  
    40    22    25 1   
    41    23    24 ar  
    42    23    44 1   
    43    24    45 1   
    44    25    26 3   
    45    27    28 1   
    46    27    29 1   
    47    27    30 1   
@<TRIPOS>SUBSTRUCTURE
     1 1HJ         1 TEMP              0 ****  ****    0 ROOT
