@<TRIPOS>MOLECULE
1HJ
   45    47     1     0     0
SMALL
No Charge or Current Charge


@<TRIPOS>ATOM
      1 C1          -4.4430    -0.9360     0.0550 c6         1 1HJ       0.113300
      2 C2          -3.4730     0.2510     0.2190 c6         1 1HJ      -0.140400
      3 O3          -3.6640    -2.1430    -0.0710 os         1 1HJ      -0.472600
      4 C4          -2.5480    -2.1270    -0.8390 c2         1 1HJ       0.830500
      5 N5          -1.9570    -1.0820    -1.2590 n2         1 1HJ      -0.769900
      6 C6          -2.4450     0.2840    -0.9470 c6         1 1HJ       0.244500
      7 C7          -1.2610     1.2410    -0.5850 ca         1 1HJ      -0.081300
      8 C8           0.0690     0.7550    -0.4670 ca         1 1HJ      -0.111000
      9 C9           1.1470     1.6010    -0.1360 ca         1 1HJ      -0.040000
     10 C10          0.9000     2.9700     0.0890 ca         1 1HJ      -0.106000
     11 C11         -0.4060     3.4710    -0.0140 ca         1 1HJ      -0.130000
     12 C12         -1.4730     2.6230    -0.3440 ca         1 1HJ       0.141000
     13 F13         -2.7060     3.1720    -0.4170 f          1 1HJ      -0.187000
     14 N14         -2.1300    -3.3660    -1.0900 nv         1 1HJ      -1.013200
     15 C15         -3.1140     0.7590    -2.2760 c3         1 1HJ      -0.089100
     16 N16          2.4400     1.0110    -0.0470 ns         1 1HJ      -0.121000
     17 C17          3.6990     1.5270     0.2470 c          1 1HJ       0.512600
     18 C18          4.8230     0.4870     0.2250 ca         1 1HJ       0.304500
     19 O19          3.9030     2.7130     0.5040 o          1 1HJ      -0.581100
     20 N20          4.5230    -0.8160    -0.0680 nb         1 1HJ      -0.681000
     21 C21          5.5270    -1.7290    -0.0850 ca         1 1HJ       0.380900
     22 C22          6.8640    -1.4000     0.1860 ca         1 1HJ      -0.051000
     23 C23          7.1860    -0.0660     0.4890 ca         1 1HJ      -0.043000
     24 C24          6.1500     0.8850     0.5070 ca         1 1HJ      -0.106000
     25 C25          7.8720    -2.4160     0.1500 cg         1 1HJ       0.317000
     26 N26          8.7010    -3.2370     0.1230 n1         1 1HJ      -0.426000
     27 C27         -5.4570    -1.1000     1.2350 c3         1 1HJ       0.308000
     28 F28         -6.2970    -2.1410     1.0250 f          1 1HJ      -0.106000
     29 F29         -4.8330    -1.3200     2.4160 f          1 1HJ      -0.106000
     30 F30         -6.2240     0.0040     1.3860 f          1 1HJ      -0.106000
     31 H1          -5.0260    -0.8030    -0.8670 h1         1 1HJ       0.083700
     32 H2          -4.0400     1.1890     0.2740 hc         1 1HJ       0.086700
     33 H3          -2.9370     0.1570     1.1730 hc         1 1HJ       0.086700
     34 H4           0.2880    -0.2970    -0.6310 ha         1 1HJ       0.143000
     35 H5           1.6970     3.6600     0.3470 ha         1 1HJ       0.151000
     36 H6          -0.5950     4.5270     0.1640 ha         1 1HJ       0.134000
     37 H7          -2.8970    -4.0200    -1.0320 hn         1 1HJ       0.486000
     38 H8          -1.6020    -3.4040    -1.9490 hn         1 1HJ       0.486000
     39 H9          -3.6500     1.7070    -2.1610 hc         1 1HJ       0.046700
     40 H10         -2.3630     0.9020    -3.0630 hc         1 1HJ       0.046700
     41 H11         -3.8420     0.0310    -2.6540 hc         1 1HJ       0.046700
     42 H12          2.4530     0.0150    -0.2340 hn         1 1HJ       0.185000
     43 H13          5.2400    -2.7530    -0.3240 h4         1 1HJ       0.037100
     44 H14          8.2110     0.2310     0.7040 ha         1 1HJ       0.139000
     45 H15          6.3720     1.9230     0.7390 ha         1 1HJ       0.158000
@<TRIPOS>BOND
     1     1     2 1   
     2     1     3 1   
     3     1    27 1   
     4     1    31 1   
     5     2     6 1   
     6     2    32 1   
     7     2    33 1   
     8     3     4 1   
     9     4     5 2   
    10     4    14 1   
    11     5     6 1   
    12     6     7 1   
    13     6    15 1   
    14     7     8 ar  
    15     7    12 ar  
    16     8     9 ar  
    17     8    34 1   
    18     9    10 ar  
    19     9    16 1   
    20    10    11 ar  
    21    10    35 1   
    22    11    12 ar  
    23    11    36 1   
    24    12    13 1   
    25    14    37 1   
    26    14    38 1   
    27    15    39 1   
    28    15    40 1   
    29    15    41 1   
    30    16    17 1   
    31    16    42 1   
    32    17    18 1   
    33    17    19 2   
    34    18    20 ar  
    35    18    24 ar  
    36    20    21 ar  
    37    21    22 ar  
    38    21    43 1   
    39    22    23 ar  
    40    22    25 1   
    41    23    24 ar  
    42    23    44 1   
    43    24    45 1   
    44    25    26 3   
    45    27    28 1   
    46    27    29 1   
    47    27    30 1   
@<TRIPOS>SUBSTRUCTURE
     1 1HJ         1 TEMP              0 ****  ****    0 ROOT
