@<TRIPOS>MOLECULE
1HK
   41    44     1     0     0
SMALL
abcg2


@<TRIPOS>ATOM
      1 O1          -6.6560     0.2020     0.2480 oh         1 1HK      -0.534100
      2 C1          -5.3160     0.3180     0.3610 ca         1 1HK       0.122100
      3 C18         -4.4610    -0.7610     0.0780 ca         1 1HK       0.048100
      4 O2          -5.0910    -1.8930    -0.3090 os         1 1HK      -0.367100
      5 C19         -4.3110    -3.0300    -0.6160 c3         1 1HK       0.156900
      6 C17         -3.0910    -0.6090     0.2080 ca         1 1HK      -0.149000
      7 C4          -2.5380     0.6080     0.6140 ca         1 1HK      -0.089300
      8 C3          -3.3900     1.6660     0.8890 ca         1 1HK      -0.101000
      9 C2          -4.7690     1.5220     0.7660 ca         1 1HK      -0.123000
     10 C5          -1.0460     0.7670     0.6990 c3         1 1HK      -0.023100
     11 C6          -0.4230     1.0570    -0.6740 c3         1 1HK      -0.009100
     12 C7           1.0580     1.1980    -0.6020 cc         1 1HK      -0.115300
     13 C9           2.0640     0.3070    -0.3130 cd         1 1HK      -0.212300
     14 C10          2.3640    -1.1160     0.0270 c5         1 1HK       0.057200
     15 C11          3.8780    -1.0750     0.1450 ca         1 1HK      -0.084300
     16 C16          4.3870     0.2150    -0.0980 ca         1 1HK      -0.117500
     17 C8           3.2410     1.0640    -0.3800 cd         1 1HK       0.290500
     18 N2           3.0220     2.3290    -0.6820 nc         1 1HK      -0.484800
     19 N1           1.6930     2.3780    -0.8090 na         1 1HK      -0.010200
     20 C15          5.7490     0.4680    -0.0420 ca         1 1HK      -0.074000
     21 C14          6.6090    -0.5820     0.2600 ca         1 1HK      -0.116000
     22 C13          6.1120    -1.8580     0.5020 ca         1 1HK      -0.106000
     23 C12          4.7430    -2.1110     0.4460 ca         1 1HK      -0.104000
     24 H2          -6.8900    -0.6920    -0.0260 ho         1 1HK       0.481000
     25 H192        -3.7430    -3.3780     0.2510 h1         1 1HK       0.041700
     26 H191        -5.0040    -3.8090    -0.9200 h1         1 1HK       0.041700
     27 H193        -3.6150    -2.8340    -1.4370 h1         1 1HK       0.041700
     28 H13         -2.4290    -1.4420     0.0020 ha         1 1HK       0.116000
     29 H4          -2.9850     2.6180     1.2090 ha         1 1HK       0.116000
     30 H3          -5.4280     2.3530     0.9900 ha         1 1HK       0.131000
     31 H5          -0.7980     1.5820     1.3830 hc         1 1HK       0.054200
     32 H14         -0.5940    -0.1380     1.1140 hc         1 1HK       0.054200
     33 H6          -0.6720     0.2460    -1.3630 hc         1 1HK       0.056700
     34 H15         -0.8660     1.9640    -1.0920 hc         1 1HK       0.056700
     35 H7           1.9010    -1.4440     0.9620 hc         1 1HK       0.062200
     36 H8           2.0460    -1.8240    -0.7430 hc         1 1HK       0.062200
     37 H1           1.2520     3.2550    -1.0400 hn         1 1HK       0.369000
     38 H12          6.1370     1.4610    -0.2310 ha         1 1HK       0.125000
     39 H11          7.6760    -0.4050     0.3080 ha         1 1HK       0.113000
     40 H10          6.7960    -2.6640     0.7350 ha         1 1HK       0.111000
     41 H9           4.3660    -3.1090     0.6350 ha         1 1HK       0.112000
@<TRIPOS>BOND
     1     1     2 1   
     2     1    24 1   
     3     2     3 ar  
     4     2     9 ar  
     5     3     4 1   
     6     3     6 ar  
     7     4     5 1   
     8     5    25 1   
     9     5    26 1   
    10     5    27 1   
    11     6     7 ar  
    12     6    28 1   
    13     7     8 ar  
    14     7    10 1   
    15     8     9 ar  
    16     8    29 1   
    17     9    30 1   
    18    10    11 1   
    19    10    31 1   
    20    10    32 1   
    21    11    12 1   
    22    11    33 1   
    23    11    34 1   
    24    12    13 2   
    25    12    19 1   
    26    13    14 1   
    27    13    17 1   
    28    14    15 1   
    29    14    35 1   
    30    14    36 1   
    31    15    16 ar  
    32    15    23 ar  
    33    16    17 1   
    34    16    20 ar  
    35    17    18 2   
    36    18    19 1   
    37    19    37 1   
    38    20    21 ar  
    39    20    38 1   
    40    21    22 ar  
    41    21    39 1   
    42    22    23 ar  
    43    22    40 1   
    44    23    41 1   
@<TRIPOS>SUBSTRUCTURE
     1 1HK         1 TEMP              0 ****  ****    0 ROOT
