@<TRIPOS>MOLECULE
1HK
   41    44     1     0     0
SMALL
No Charge or Current Charge


@<TRIPOS>ATOM
      1 O1          -6.6760     0.0480    -0.0520 oh         1 1HK      -0.534100
      2 C1          -5.3430     0.2750     0.1370 ca         1 1HK       0.122100
      3 C18         -4.4420    -0.8090     0.1310 ca         1 1HK       0.048100
      4 O2          -4.9520    -2.0810    -0.0720 os         1 1HK      -0.367100
      5 C19         -4.1120    -3.2510    -0.0980 c3         1 1HK       0.156900
      6 C17         -3.0630    -0.5680     0.3270 ca         1 1HK      -0.149000
      7 C4          -2.5940     0.7460     0.5290 ca         1 1HK      -0.089300
      8 C3          -3.5060     1.8190     0.5310 ca         1 1HK      -0.101000
      9 C2          -4.8770     1.5840     0.3360 ca         1 1HK      -0.123000
     10 C5          -1.1070     1.0020     0.7340 c3         1 1HK      -0.023100
     11 C6          -0.3450     1.1060    -0.6020 c3         1 1HK      -0.009100
     12 C7           1.1310     1.3300    -0.4090 cc         1 1HK      -0.115300
     13 C9           2.1710     0.4650    -0.3060 cd         1 1HK      -0.212300
     14 C10          2.2290    -1.0440    -0.3360 c5         1 1HK       0.057200
     15 C11          3.7790    -1.0680    -0.1280 ca         1 1HK      -0.084300
     16 C16          4.3810     0.2030    -0.0160 ca         1 1HK      -0.117500
     17 C8           3.3190     1.1600    -0.1330 cd         1 1HK       0.290500
     18 N2           3.1950     2.4640    -0.1050 nc         1 1HK      -0.484800
     19 N1           1.7990     2.5710    -0.2830 na         1 1HK      -0.010200
     20 C15          5.7560     0.3810     0.1760 ca         1 1HK      -0.074000
     21 C14          6.5600    -0.7730     0.2560 ca         1 1HK      -0.116000
     22 C13          5.9800    -2.0590     0.1450 ca         1 1HK      -0.106000
     23 C12          4.5890    -2.2120    -0.0470 ca         1 1HK      -0.104000
     24 H2          -6.7760    -0.9230    -0.1700 ho         1 1HK       0.481000
     25 H192        -3.5850    -3.3750     0.8570 h1         1 1HK       0.041700
     26 H191        -4.7170    -4.1500    -0.2720 h1         1 1HK       0.041700
     27 H193        -3.3700    -3.1800    -0.9040 h1         1 1HK       0.041700
     28 H13         -2.3460    -1.3840     0.3250 ha         1 1HK       0.116000
     29 H4          -3.1520     2.8370     0.6820 ha         1 1HK       0.116000
     30 H3          -5.5780     2.4150     0.3390 ha         1 1HK       0.131000
     31 H5          -0.9540     1.9250     1.3070 hc         1 1HK       0.054200
     32 H14         -0.6660     0.1950     1.3330 hc         1 1HK       0.054200
     33 H6          -0.5030     0.1860    -1.1790 hc         1 1HK       0.056700
     34 H15         -0.7710     1.9230    -1.1970 hc         1 1HK       0.056700
     35 H7           1.6740    -1.5200     0.4800 hc         1 1HK       0.062200
     36 H8           1.9130    -1.4760    -1.2930 hc         1 1HK       0.062200
     37 H1           1.3500     3.4850    -0.3110 hn         1 1HK       0.369000
     38 H12          6.1880     1.3760     0.2610 ha         1 1HK       0.125000
     39 H11          7.6330    -0.6750     0.4050 ha         1 1HK       0.113000
     40 H10          6.6130    -2.9410     0.2090 ha         1 1HK       0.111000
     41 H9           4.1510    -3.2040    -0.1310 ha         1 1HK       0.112000
@<TRIPOS>BOND
     1     1     2 1   
     2     1    24 1   
     3     2     3 ar  
     4     2     9 ar  
     5     3     4 1   
     6     3     6 ar  
     7     4     5 1   
     8     5    25 1   
     9     5    26 1   
    10     5    27 1   
    11     6     7 ar  
    12     6    28 1   
    13     7     8 ar  
    14     7    10 1   
    15     8     9 ar  
    16     8    29 1   
    17     9    30 1   
    18    10    11 1   
    19    10    31 1   
    20    10    32 1   
    21    11    12 1   
    22    11    33 1   
    23    11    34 1   
    24    12    13 2   
    25    12    19 1   
    26    13    14 1   
    27    13    17 1   
    28    14    15 1   
    29    14    35 1   
    30    14    36 1   
    31    15    16 ar  
    32    15    23 ar  
    33    16    17 1   
    34    16    20 ar  
    35    17    18 2   
    36    18    19 1   
    37    19    37 1   
    38    20    21 ar  
    39    20    38 1   
    40    21    22 ar  
    41    21    39 1   
    42    22    23 ar  
    43    22    40 1   
    44    23    41 1   
@<TRIPOS>SUBSTRUCTURE
     1 1HK         1 TEMP              0 ****  ****    0 ROOT
