@<TRIPOS>MOLECULE
1HL
   45    47     1     0     0
SMALL
No Charge or Current Charge


@<TRIPOS>ATOM
      1 C1          -3.3300    -0.9330     0.5160 c6         1 1HL       0.114300
      2 C2          -3.8850     0.1300    -0.4530 c6         1 1HL      -0.141400
      3 O3          -2.8890    -2.0670    -0.2640 os         1 1HL      -0.475600
      4 C4          -2.2840    -1.8570    -1.4610 c2         1 1HL       0.824500
      5 N5          -2.2190    -0.7380    -2.0670 n2         1 1HL      -0.761900
      6 C6          -2.7670     0.4990    -1.4630 c6         1 1HL       0.239500
      7 C7          -1.6430     1.3500    -0.7760 ca         1 1HL      -0.097300
      8 C8          -0.3100     0.8660    -0.6700 ca         1 1HL      -0.127000
      9 C9           0.7080     1.6120    -0.0450 ca         1 1HL      -0.036000
     10 C10          0.4020     2.8770     0.4920 ca         1 1HL      -0.106000
     11 C11         -0.9050     3.3770     0.4010 ca         1 1HL      -0.127000
     12 C12         -1.9150     2.6290    -0.2220 ca         1 1HL       0.145000
     13 F13         -3.1520     3.1710    -0.2670 f          1 1HL      -0.183000
     14 N14         -1.8070    -2.9980    -1.9550 nv         1 1HL      -1.013200
     15 C15         -3.3700     1.2850    -2.6670 c3         1 1HL      -0.071100
     16 N16          2.0080     1.0310     0.0050 ns         1 1HL      -0.123000
     17 C17          3.2180     1.4620     0.5410 c          1 1HL       0.512600
     18 C18          4.3750     0.4770     0.3470 ca         1 1HL       0.302500
     19 O19          3.3590     2.5370     1.1230 o          1 1HL      -0.578100
     20 N20          4.1460    -0.7030    -0.3090 nb         1 1HL      -0.683000
     21 C21          5.1790    -1.5670    -0.4750 ca         1 1HL       0.379900
     22 C22          6.4760    -1.3090    -0.0040 ca         1 1HL      -0.049000
     23 C23          6.7240    -0.1010     0.6710 ca         1 1HL      -0.043000
     24 C24          5.6580     0.7980     0.8460 ca         1 1HL      -0.104000
     25 C25          7.5180    -2.2680    -0.2160 cg         1 1HL       0.315000
     26 N26          8.3740    -3.0430    -0.3830 n1         1 1HL      -0.423000
     27 C27         -4.3550    -1.4170     1.5930 c3         1 1HL       0.307000
     28 F28         -3.8060    -2.3360     2.4210 f          1 1HL      -0.106333
     29 F29         -4.7810    -0.3910     2.3660 f          1 1HL      -0.106333
     30 F30         -5.4510    -1.9820     1.0340 f          1 1HL      -0.106333
     31 H1          -2.4590    -0.5170     1.0450 h1         1 1HL       0.089700
     32 H2          -4.7560    -0.2770    -0.9850 hc         1 1HL       0.086200
     33 H3          -4.2440     1.0050     0.0990 hc         1 1HL       0.086200
     34 H4          -0.0410    -0.1050    -1.0750 ha         1 1HL       0.129000
     35 H5           1.1540     3.4890     0.9820 ha         1 1HL       0.153000
     36 H6          -1.1410     4.3530     0.8170 ha         1 1HL       0.136000
     37 H7          -1.6000    -3.6520    -1.2150 hn         1 1HL       0.487000
     38 H8          -1.0510    -2.8310    -2.6030 hn         1 1HL       0.487000
     39 H9          -3.9370     2.1670    -2.3520 hc         1 1HL       0.049367
     40 H10         -2.5830     1.6250    -3.3510 hc         1 1HL       0.049367
     41 H11         -4.0610     0.6600    -3.2450 hc         1 1HL       0.049367
     42 H12          2.0710     0.1220    -0.4380 hn         1 1HL       0.183000
     43 H13          4.9500    -2.4930    -1.0030 h4         1 1HL       0.037100
     44 H14          7.7160     0.1370     1.0510 ha         1 1HL       0.140000
     45 H15          5.8240     1.7390     1.3650 ha         1 1HL       0.159000
@<TRIPOS>BOND
     1     1     2 1   
     2     1     3 1   
     3     1    27 1   
     4     1    31 1   
     5     2     6 1   
     6     2    32 1   
     7     2    33 1   
     8     3     4 1   
     9     4     5 2   
    10     4    14 1   
    11     5     6 1   
    12     6     7 1   
    13     6    15 1   
    14     7     8 ar  
    15     7    12 ar  
    16     8     9 ar  
    17     8    34 1   
    18     9    10 ar  
    19     9    16 1   
    20    10    11 ar  
    21    10    35 1   
    22    11    12 ar  
    23    11    36 1   
    24    12    13 1   
    25    14    37 1   
    26    14    38 1   
    27    15    39 1   
    28    15    40 1   
    29    15    41 1   
    30    16    17 1   
    31    16    42 1   
    32    17    18 1   
    33    17    19 2   
    34    18    20 ar  
    35    18    24 ar  
    36    20    21 ar  
    37    21    22 ar  
    38    21    43 1   
    39    22    23 ar  
    40    22    25 1   
    41    23    24 ar  
    42    23    44 1   
    43    24    45 1   
    44    25    26 3   
    45    27    28 1   
    46    27    29 1   
    47    27    30 1   
@<TRIPOS>SUBSTRUCTURE
     1 1HL         1 TEMP              0 ****  ****    0 ROOT
