@<TRIPOS>MOLECULE
1HL
   45    47     1     0     0
SMALL
abcg2


@<TRIPOS>ATOM
      1 C1          -3.2700    -0.8620     0.5490 c6         1 1HL       0.114300
      2 C2          -3.8010     0.1470    -0.4460 c6         1 1HL      -0.141400
      3 O3          -2.7780    -2.0120    -0.1120 os         1 1HL      -0.475600
      4 C4          -2.2140    -1.8270    -1.3230 c2         1 1HL       0.824500
      5 N5          -2.0940    -0.7340    -1.9590 n2         1 1HL      -0.761900
      6 C6          -2.6770     0.4850    -1.4380 c6         1 1HL       0.239500
      7 C7          -1.5910     1.3250    -0.7550 ca         1 1HL      -0.097300
      8 C8          -0.2820     0.8710    -0.6760 ca         1 1HL      -0.127000
      9 C9           0.7350     1.5990    -0.0570 ca         1 1HL      -0.036000
     10 C10          0.4430     2.8390     0.5050 ca         1 1HL      -0.106000
     11 C11         -0.8570     3.3160     0.4320 ca         1 1HL      -0.127000
     12 C12         -1.8380     2.5710    -0.1870 ca         1 1HL       0.145000
     13 F13         -3.0800     3.0940    -0.2210 f          1 1HL      -0.183000
     14 N14         -1.8030    -3.0140    -1.8350 nv         1 1HL      -1.013200
     15 C15         -3.2490     1.2410    -2.6420 c3         1 1HL      -0.071100
     16 N16          2.0010     1.0090    -0.0510 ns         1 1HL      -0.123000
     17 C17          3.1400     1.4420     0.5180 c          1 1HL       0.512600
     18 C18          4.2950     0.4960     0.3260 ca         1 1HL       0.302500
     19 O19          3.2830     2.4790     1.1410 o          1 1HL      -0.578100
     20 N20          4.0660    -0.6150    -0.3680 nb         1 1HL      -0.683000
     21 C21          5.0510    -1.4690    -0.5540 ca         1 1HL       0.379900
     22 C22          6.3300    -1.2440    -0.0430 ca         1 1HL      -0.049000
     23 C23          6.5740    -0.0830     0.6830 ca         1 1HL      -0.043000
     24 C24          5.5330     0.8070     0.8710 ca         1 1HL      -0.104000
     25 C25          7.3620    -2.2000    -0.2700 cg         1 1HL       0.315000
     26 N26          8.1910    -2.9770    -0.4580 n1         1 1HL      -0.423000
     27 C27         -4.3280    -1.3730     1.5100 c3         1 1HL       0.307000
     28 F28         -3.8280    -2.2750     2.3600 f          1 1HL      -0.106333
     29 F29         -4.8230    -0.3660     2.2360 f          1 1HL      -0.106333
     30 F30         -5.3510    -1.9550     0.8780 f          1 1HL      -0.106333
     31 H1          -2.4700    -0.4140     1.1530 h1         1 1HL       0.089700
     32 H2          -4.6390    -0.2780    -1.0050 hc         1 1HL       0.086200
     33 H3          -4.1730     1.0280     0.0710 hc         1 1HL       0.086200
     34 H4          -0.0420    -0.0870    -1.1190 ha         1 1HL       0.129000
     35 H5           1.1980     3.4320     0.9930 ha         1 1HL       0.153000
     36 H6          -1.1070     4.2770     0.8610 ha         1 1HL       0.136000
     37 H7          -1.5620    -3.7490    -1.1910 hn         1 1HL       0.487000
     38 H8          -1.2030    -2.9510    -2.6410 hn         1 1HL       0.487000
     39 H9          -3.7430     2.1680    -2.3600 hc         1 1HL       0.049367
     40 H10         -2.4530     1.4720    -3.3490 hc         1 1HL       0.049367
     41 H11         -3.9790     0.6090    -3.1500 hc         1 1HL       0.049367
     42 H12          2.0810     0.1170    -0.5250 hn         1 1HL       0.183000
     43 H13          4.8340    -2.3640    -1.1230 h4         1 1HL       0.037100
     44 H14          7.5540     0.1180     1.0920 ha         1 1HL       0.140000
     45 H15          5.6810     1.7200     1.4290 ha         1 1HL       0.159000
@<TRIPOS>BOND
     1     1     2 1   
     2     1     3 1   
     3     1    27 1   
     4     1    31 1   
     5     2     6 1   
     6     2    32 1   
     7     2    33 1   
     8     3     4 1   
     9     4     5 2   
    10     4    14 1   
    11     5     6 1   
    12     6     7 1   
    13     6    15 1   
    14     7     8 ar  
    15     7    12 ar  
    16     8     9 ar  
    17     8    34 1   
    18     9    10 ar  
    19     9    16 1   
    20    10    11 ar  
    21    10    35 1   
    22    11    12 ar  
    23    11    36 1   
    24    12    13 1   
    25    14    37 1   
    26    14    38 1   
    27    15    39 1   
    28    15    40 1   
    29    15    41 1   
    30    16    17 1   
    31    16    42 1   
    32    17    18 1   
    33    17    19 2   
    34    18    20 ar  
    35    18    24 ar  
    36    20    21 ar  
    37    21    22 ar  
    38    21    43 1   
    39    22    23 ar  
    40    22    25 1   
    41    23    24 ar  
    42    23    44 1   
    43    24    45 1   
    44    25    26 3   
    45    27    28 1   
    46    27    29 1   
    47    27    30 1   
@<TRIPOS>SUBSTRUCTURE
     1 1HL         1 TEMP              0 ****  ****    0 ROOT
