@<TRIPOS>MOLECULE
1HM
   45    47     1     0     0
SMALL
No Charge or Current Charge


@<TRIPOS>ATOM
      1 C1          -3.4960    -1.0300     0.5090 c6         1 1HM       0.116300
      2 C2          -3.8400     0.0480    -0.5380 c6         1 1HM      -0.137400
      3 C4          -2.0430    -1.9070    -1.2160 c2         1 1HM       0.841500
      4 C6          -2.5280     0.4510    -1.2730 c6         1 1HM       0.203500
      5 C12         -1.8080     2.2110     0.5490 ca         1 1HM       0.162000
      6 C15         -2.8480     1.3810    -2.4970 c3         1 1HM       0.205600
      7 C17          3.4240     1.3000     0.8620 c          1 1HM       0.512600
      8 C18          4.6460     0.5270     0.3550 ca         1 1HM       0.303500
      9 O3          -2.8890    -2.1460    -0.1810 os         1 1HM      -0.476600
     10 N5          -1.9520    -0.7990    -1.8370 n2         1 1HM      -0.775900
     11 C7          -1.4680     1.1620    -0.3500 ca         1 1HM      -0.112300
     12 C8          -0.0940     0.7980    -0.4200 ca         1 1HM      -0.118000
     13 C9           0.8890     1.4050     0.3850 ca         1 1HM      -0.041000
     14 C10          0.5080     2.4200     1.2830 ca         1 1HM      -0.097000
     15 C11         -0.8330     2.8190     1.3530 ca         1 1HM      -0.134000
     16 F13         -3.0670     2.6830     0.6570 f          1 1HM      -0.175000
     17 N14         -1.6080    -3.0540    -1.7230 nv         1 1HM      -1.019200
     18 N16          2.2310     0.9510     0.2350 ns         1 1HM      -0.123000
     19 O19          3.5030     2.1510     1.7470 o          1 1HM      -0.579100
     20 N20          4.4850    -0.4070    -0.6320 nb         1 1HM      -0.680000
     21 C21          5.5740    -1.0850    -1.0730 ca         1 1HM       0.380900
     22 C22          6.8650    -0.8730    -0.5630 ca         1 1HM      -0.050000
     23 C23          7.0440     0.0830     0.4510 ca         1 1HM      -0.043000
     24 C24          5.9190     0.7890     0.9120 ca         1 1HM      -0.106000
     25 C25          7.9690    -1.6260    -1.0760 cg         1 1HM       0.316000
     26 N26          8.8760    -2.2340    -1.4880 n1         1 1HM      -0.425000
     27 C27         -4.7250    -1.5420     1.3290 c3         1 1HM       0.305000
     28 F28         -5.6700    -2.0990     0.5350 f          1 1HM      -0.106333
     29 F29         -4.3600    -2.4780     2.2360 f          1 1HM      -0.106333
     30 F30         -5.3170    -0.5360     2.0130 f          1 1HM      -0.106333
     31 F31         -3.4970     2.5240    -2.1530 f          1 1HM      -0.263000
     32 H1          -2.7650    -0.6220     1.2220 h1         1 1HM       0.098700
     33 H2          -4.5550    -0.3660    -1.2630 hc         1 1HM       0.091200
     34 H3          -4.3600     0.8950    -0.0810 hc         1 1HM       0.091200
     35 H4          -1.9110     1.6530    -3.0000 h1         1 1HM       0.057700
     36 H5          -3.4750     0.8360    -3.2140 h1         1 1HM       0.057700
     37 H6           0.2390     0.0310    -1.1150 ha         1 1HM       0.138000
     38 H7           1.2300     2.9200     1.9220 ha         1 1HM       0.152000
     39 H8          -1.1230     3.6160     2.0340 ha         1 1HM       0.137000
     40 H9          -2.2130    -3.8070    -1.4340 hn         1 1HM       0.493000
     41 H10         -1.4910    -2.9710    -2.7220 hn         1 1HM       0.493000
     42 H11          2.3470     0.2310    -0.4680 hn         1 1HM       0.185000
     43 H12          5.3980    -1.8180    -1.8590 h4         1 1HM       0.037100
     44 H13          8.0290     0.2770     0.8730 ha         1 1HM       0.140000
     45 H14          6.0310     1.5340     1.6960 ha         1 1HM       0.158000
@<TRIPOS>BOND
     1     1     2 1   
     2     1     9 1   
     3     1    27 1   
     4     1    32 1   
     5     2     4 1   
     6     2    33 1   
     7     2    34 1   
     8     3     9 1   
     9     3    10 2   
    10     3    17 1   
    11     4     6 1   
    12     4    10 1   
    13     4    11 1   
    14     5    11 ar  
    15     5    15 ar  
    16     5    16 1   
    17     6    31 1   
    18     6    35 1   
    19     6    36 1   
    20     7     8 1   
    21     7    18 1   
    22     7    19 2   
    23     8    20 ar  
    24     8    24 ar  
    25    11    12 ar  
    26    12    13 ar  
    27    12    37 1   
    28    13    14 ar  
    29    13    18 1   
    30    14    15 ar  
    31    14    38 1   
    32    15    39 1   
    33    17    40 1   
    34    17    41 1   
    35    18    42 1   
    36    20    21 ar  
    37    21    22 ar  
    38    21    43 1   
    39    22    23 ar  
    40    22    25 1   
    41    23    24 ar  
    42    23    44 1   
    43    24    45 1   
    44    25    26 3   
    45    27    28 1   
    46    27    29 1   
    47    27    30 1   
@<TRIPOS>SUBSTRUCTURE
     1 1HM         1 TEMP              0 ****  ****    0 ROOT
