@<TRIPOS>MOLECULE
1HM
   45    47     1     0     0
SMALL
abcg2


@<TRIPOS>ATOM
      1 C1          -3.5110    -1.0120     0.4800 c6         1 1HM       0.116300
      2 C2          -3.7720     0.1130    -0.4970 c6         1 1HM      -0.137400
      3 C4          -2.1230    -1.8590    -1.2420 c2         1 1HM       0.841500
      4 C6          -2.4430     0.4660    -1.1740 c6         1 1HM       0.203500
      5 C12         -1.7210     2.1680     0.6450 ca         1 1HM       0.162000
      6 C15         -2.6770     1.3770    -2.3810 c3         1 1HM       0.205600
      7 C17          3.3650     1.3540     0.7320 c          1 1HM       0.512600
      8 C18          4.5680     0.5680     0.2850 ca         1 1HM       0.303500
      9 O3          -2.8710    -2.1080    -0.1510 os         1 1HM      -0.476600
     10 N5          -1.8780    -0.7250    -1.7660 n2         1 1HM      -0.775900
     11 C7          -1.4290     1.1310    -0.2360 ca         1 1HM      -0.112300
     12 C8          -0.0950     0.7420    -0.2990 ca         1 1HM      -0.118000
     13 C9           0.9050     1.3360     0.4680 ca         1 1HM      -0.041000
     14 C10          0.5670     2.3590     1.3500 ca         1 1HM      -0.097000
     15 C11         -0.7550     2.7630     1.4290 ca         1 1HM      -0.134000
     16 F13         -2.9780     2.6270     0.7820 f          1 1HM      -0.175000
     17 N14         -1.5810    -3.0040    -1.7150 nv         1 1HM      -1.019200
     18 N16          2.2010     0.8410     0.2940 ns         1 1HM      -0.123000
     19 O19          3.4950     2.3520     1.4180 o          1 1HM      -0.579100
     20 N20          4.3530    -0.5260    -0.4370 nb         1 1HM      -0.680000
     21 C21          5.3830    -1.2370    -0.8460 ca         1 1HM       0.380900
     22 C22          6.6970    -0.8740    -0.5460 ca         1 1HM      -0.050000
     23 C23          6.9270     0.2740     0.2070 ca         1 1HM      -0.043000
     24 C24          5.8370     1.0090     0.6330 ca         1 1HM      -0.106000
     25 C25          7.7800    -1.6740    -1.0130 cg         1 1HM       0.316000
     26 N26          8.6530    -2.3220    -1.3920 n1         1 1HM      -0.425000
     27 C27         -4.7810    -1.5850     1.0870 c3         1 1HM       0.305000
     28 F28         -5.6190    -2.0580     0.1610 f          1 1HM      -0.106333
     29 F29         -4.5130    -2.5880     1.9260 f          1 1HM      -0.106333
     30 F30         -5.4300    -0.6430     1.7770 f          1 1HM      -0.106333
     31 F31         -3.1880     2.6080    -1.9990 f          1 1HM      -0.263000
     32 H1          -2.8830    -0.6600     1.3080 h1         1 1HM       0.098700
     33 H2          -4.4670    -0.2120    -1.2760 hc         1 1HM       0.091200
     34 H3          -4.2300     0.9540     0.0110 hc         1 1HM       0.091200
     35 H4          -1.7320     1.5400    -2.9020 h1         1 1HM       0.057700
     36 H5          -3.3880     0.9050    -3.0620 h1         1 1HM       0.057700
     37 H6           0.1690    -0.0540    -0.9840 ha         1 1HM       0.138000
     38 H7           1.3010     2.8400     1.9750 ha         1 1HM       0.152000
     39 H8          -1.0360     3.5570     2.1090 ha         1 1HM       0.137000
     40 H9          -2.0370    -3.8760    -1.5010 hn         1 1HM       0.493000
     41 H10         -1.1670    -2.9510    -2.6300 hn         1 1HM       0.493000
     42 H11          2.2910     0.0150    -0.2860 hn         1 1HM       0.185000
     43 H12          5.1780    -2.1240    -1.4320 h4         1 1HM       0.037100
     44 H13          7.9340     0.5820     0.4510 ha         1 1HM       0.140000
     45 H14          5.9710     1.9060     1.2200 ha         1 1HM       0.158000
@<TRIPOS>BOND
     1     1     2 1   
     2     1     9 1   
     3     1    27 1   
     4     1    32 1   
     5     2     4 1   
     6     2    33 1   
     7     2    34 1   
     8     3     9 1   
     9     3    10 2   
    10     3    17 1   
    11     4     6 1   
    12     4    10 1   
    13     4    11 1   
    14     5    11 ar  
    15     5    15 ar  
    16     5    16 1   
    17     6    31 1   
    18     6    35 1   
    19     6    36 1   
    20     7     8 1   
    21     7    18 1   
    22     7    19 2   
    23     8    20 ar  
    24     8    24 ar  
    25    11    12 ar  
    26    12    13 ar  
    27    12    37 1   
    28    13    14 ar  
    29    13    18 1   
    30    14    15 ar  
    31    14    38 1   
    32    15    39 1   
    33    17    40 1   
    34    17    41 1   
    35    18    42 1   
    36    20    21 ar  
    37    21    22 ar  
    38    21    43 1   
    39    22    23 ar  
    40    22    25 1   
    41    23    24 ar  
    42    23    44 1   
    43    24    45 1   
    44    25    26 3   
    45    27    28 1   
    46    27    29 1   
    47    27    30 1   
@<TRIPOS>SUBSTRUCTURE
     1 1HM         1 TEMP              0 ****  ****    0 ROOT
