@<TRIPOS>MOLECULE
1HN
   21    22     1     0     0
SMALL
No Charge or Current Charge


@<TRIPOS>ATOM
      1 C1           0.3210     0.7690    -0.0750 ca         1 1HN       0.236100
      2 O1           0.7040     2.0750    -0.1190 oh         1 1HN      -0.640100
      3 C2           1.3150    -0.2380    -0.0630 ca         1 1HN      -0.311600
      4 O2           3.1170     1.2700    -0.1380 o          1 1HN      -0.693000
      5 C3           0.9040    -1.5900    -0.0170 ca         1 1HN       0.003000
      6 O3           3.5960    -0.8270    -0.0870 o          1 1HN      -0.693000
      7 C4          -0.4570    -1.9250     0.0160 ca         1 1HN      -0.226000
      8 C5          -2.8010    -1.2770     0.0390 ca         1 1HN      -0.130000
      9 C6          -3.7900    -0.2810     0.0280 ca         1 1HN      -0.111000
     10 C7          -3.4190     1.0710    -0.0170 ca         1 1HN      -0.175000
     11 C8          -2.0600     1.4310    -0.0510 ca         1 1HN      -0.048000
     12 C9           2.7910     0.0910    -0.0990 c          1 1HN       0.726600
     13 C4A         -1.4390    -0.9230     0.0050 ca         1 1HN       0.013000
     14 C8A         -1.0550     0.4350    -0.0410 ca         1 1HN      -0.108000
     15 HO1          1.7050     2.0280    -0.1350 ho         1 1HN       0.556000
     16 H3           1.6390    -2.3930    -0.0070 ha         1 1HN       0.119000
     17 H4          -0.7470    -2.9730     0.0510 ha         1 1HN       0.091000
     18 H5          -3.0930    -2.3240     0.0740 ha         1 1HN       0.094000
     19 H6          -4.8420    -0.5580     0.0550 ha         1 1HN       0.087000
     20 H7          -4.1840     1.8440    -0.0260 ha         1 1HN       0.091000
     21 H8          -1.7970     2.4860    -0.0860 ha         1 1HN       0.119000
@<TRIPOS>BOND
     1     1     2 1   
     2     1     3 ar  
     3     1    14 ar  
     4     2    15 1   
     5     3     5 ar  
     6     3    12 1   
     7     4    12 1   
     8     5     7 ar  
     9     5    16 1   
    10     6    12 1   
    11     7    13 ar  
    12     7    17 1   
    13     8     9 ar  
    14     8    13 ar  
    15     8    18 1   
    16     9    10 ar  
    17     9    19 1   
    18    10    11 ar  
    19    10    20 1   
    20    11    14 ar  
    21    11    21 1   
    22    13    14 ar  
@<TRIPOS>SUBSTRUCTURE
     1 1HN         1 TEMP              0 ****  ****    0 ROOT
