@<TRIPOS>MOLECULE
1HN
   21    22     1     0     0
SMALL
bcc


@<TRIPOS>ATOM
      1 C1           0.3360     0.7520    -0.0770 ca         1 1HN       0.236100
      2 O1           0.6840     2.0270    -0.1190 oh         1 1HN      -0.601100
      3 C2           1.2940    -0.2560    -0.0650 ca         1 1HN      -0.311600
      4 O2           3.0050     1.3550    -0.1320 o          1 1HN      -0.798300
      5 C3           0.8800    -1.6050    -0.0200 ca         1 1HN      -0.015000
      6 O3           3.6020    -0.7870    -0.0850 o          1 1HN      -0.798300
      7 C4          -0.4390    -1.9520     0.0140 ca         1 1HN      -0.244000
      8 C5          -2.8150    -1.2590     0.0400 ca         1 1HN      -0.148000
      9 C6          -3.7640    -0.2720     0.0290 ca         1 1HN      -0.129000
     10 C7          -3.3800     1.0830    -0.0180 ca         1 1HN      -0.193000
     11 C8          -2.0530     1.4210    -0.0530 ca         1 1HN      -0.066000
     12 C9           2.7500     0.1050    -0.0960 c          1 1HN       0.937200
     13 C4A         -1.4370    -0.9440     0.0040 ca         1 1HN       0.013000
     14 C8A         -1.0550     0.4210    -0.0430 ca         1 1HN      -0.108000
     15 HO1          1.7280     1.9790    -0.1320 ho         1 1HN       0.517000
     16 H3           1.6410    -2.3740    -0.0110 ha         1 1HN       0.137000
     17 H4          -0.7370    -2.9920     0.0500 ha         1 1HN       0.109000
     18 H5          -3.1120    -2.3000     0.0780 ha         1 1HN       0.112000
     19 H6          -4.8150    -0.5300     0.0590 ha         1 1HN       0.105000
     20 H7          -4.1370     1.8550    -0.0270 ha         1 1HN       0.109000
     21 H8          -1.7660     2.4630    -0.0900 ha         1 1HN       0.137000
@<TRIPOS>BOND
     1     1     2 1   
     2     1     3 ar  
     3     1    14 ar  
     4     2    15 1   
     5     3     5 ar  
     6     3    12 1   
     7     4    12 1   
     8     5     7 ar  
     9     5    16 1   
    10     6    12 1   
    11     7    13 ar  
    12     7    17 1   
    13     8     9 ar  
    14     8    13 ar  
    15     8    18 1   
    16     9    10 ar  
    17     9    19 1   
    18    10    11 ar  
    19    10    20 1   
    20    11    14 ar  
    21    11    21 1   
    22    13    14 ar  
@<TRIPOS>SUBSTRUCTURE
     1 1HN         1 TEMP              0 ****  ****    0 ROOT
