@<TRIPOS>MOLECULE
1HO
   42    44     1     0     0
SMALL
No Charge or Current Charge


@<TRIPOS>ATOM
      1 C27         -5.5670     1.2150    -0.2610 ca         1 1HO      -0.105000
      2 C28         -7.6290    -1.7270     0.7790 cg         1 1HO       0.317000
      3 C26         -6.7030     0.4310     0.0060 ca         1 1HO      -0.043000
      4 O22         -3.1290     2.6960    -0.7610 o          1 1HO      -0.580100
      5 C20         -3.0430     1.5430    -0.3380 c          1 1HO       0.511600
      6 N19         -1.8310     0.9060    -0.0860 ns         1 1HO      -0.121000
      7 C15         -0.0900     2.5970    -0.6620 ca         1 1HO      -0.094000
      8 C16          1.2690     2.9270    -0.7340 ca         1 1HO      -0.138000
      9 C17          2.2590     1.9970    -0.3810 ca         1 1HO       0.180000
     10 C1           3.0140    -2.7750    -0.2210 c2         1 1HO       0.848500
     11 C3           2.9480    -0.4290     0.4800 c6         1 1HO       0.179500
     12 C8           1.9140     0.6810     0.0420 ca         1 1HO      -0.092300
     13 C4           4.3960    -0.3460    -0.1650 c6         1 1HO       0.133000
     14 C5           5.1430    -1.6860    -0.0400 c6         1 1HO       0.108600
     15 C9           3.0370    -0.3750     2.0500 c3         1 1HO       0.193600
     16 N2           2.3380    -1.7680     0.1650 n2         1 1HO      -0.797900
     17 O6           4.3250    -2.7510    -0.5540 os         1 1HO      -0.463600
     18 F10          3.4040     0.8440     2.5240 f          1 1HO      -0.249000
     19 F11          4.3060    -0.0250    -1.5360 f          1 1HO      -0.093000
     20 F12          5.2070     0.6360     0.4370 f          1 1HO      -0.093000
     21 C13          0.5240     0.3900     0.1390 ca         1 1HO      -0.106000
     22 C14         -0.4730     1.3200    -0.2130 ca         1 1HO      -0.050000
     23 C21         -4.2760     0.6830    -0.0450 ca         1 1HO       0.305500
     24 N23         -4.1060    -0.5920     0.4240 nb         1 1HO      -0.683000
     25 C24         -5.2060    -1.3440     0.6800 ca         1 1HO       0.379900
     26 C25         -6.5150    -0.8760     0.4870 ca         1 1HO      -0.051000
     27 N29         -8.5440    -2.4120     1.0150 n1         1 1HO      -0.426000
     28 H1          -5.6860     2.2290    -0.6340 ha         1 1HO       0.159000
     29 H2          -7.7020     0.8310    -0.1570 ha         1 1HO       0.139000
     30 H3          -1.9440    -0.0410     0.2560 hn         1 1HO       0.182000
     31 H4          -0.8200     3.3490    -0.9430 ha         1 1HO       0.151000
     32 H5           1.5640     3.9220    -1.0590 ha         1 1HO       0.136000
     33 H6           6.0910    -1.6540    -0.5950 h1         1 1HO       0.086700
     34 H7           5.3750    -1.8900     1.0160 h1         1 1HO       0.086700
     35 H8           2.0530    -0.6140     2.4740 h1         1 1HO       0.056700
     36 H9           3.7520    -1.1220     2.4170 h1         1 1HO       0.056700
     37 H10          1.4850    -3.7480    -0.8350 hn         1 1HO       0.499000
     38 H11          2.9900    -4.3450    -1.3400 hn         1 1HO       0.499000
     39 H12          0.1960    -0.5810     0.5020 ha         1 1HO       0.139000
     40 H13         -5.0220    -2.3520     1.0520 h4         1 1HO       0.036100
     41 F18          3.5340     2.4300    -0.4370 f          1 1HO      -0.165000
     42 N7           2.4530    -3.9140    -0.6030 nv         1 1HO      -1.031200
@<TRIPOS>BOND
     1     1     3 ar  
     2     1    23 ar  
     3     1    28 1   
     4     2    26 1   
     5     2    27 3   
     6     3    26 ar  
     7     3    29 1   
     8     4     5 2   
     9     5     6 1   
    10     5    23 1   
    11     6    22 1   
    12     6    30 1   
    13     7     8 ar  
    14     7    22 ar  
    15     7    31 1   
    16     8     9 ar  
    17     8    32 1   
    18     9    12 ar  
    19     9    41 1   
    20    10    16 2   
    21    10    17 1   
    22    10    42 1   
    23    11    12 1   
    24    11    13 1   
    25    11    15 1   
    26    11    16 1   
    27    12    21 ar  
    28    13    14 1   
    29    13    19 1   
    30    13    20 1   
    31    14    17 1   
    32    14    33 1   
    33    14    34 1   
    34    15    18 1   
    35    15    35 1   
    36    15    36 1   
    37    21    22 ar  
    38    21    39 1   
    39    23    24 ar  
    40    24    25 ar  
    41    25    26 ar  
    42    25    40 1   
    43    37    42 1   
    44    38    42 1   
@<TRIPOS>SUBSTRUCTURE
     1 1HO         1 TEMP              0 ****  ****    0 ROOT
