@<TRIPOS>MOLECULE
1HO
   42    44     1     0     0
SMALL
abcg2


@<TRIPOS>ATOM
      1 C27         -5.3910     1.1760    -0.2780 ca         1 1HO      -0.105000
      2 C28         -7.3650    -1.8540     0.5060 cg         1 1HO       0.317000
      3 C26         -6.4890     0.3600    -0.0810 ca         1 1HO      -0.043000
      4 O22         -3.0250     2.6720    -0.5970 o          1 1HO      -0.580100
      5 C20         -2.9100     1.4970    -0.2960 c          1 1HO       0.511600
      6 N19         -1.7550     0.8370    -0.1000 ns         1 1HO      -0.121000
      7 C15         -0.0950     2.6270    -0.4620 ca         1 1HO      -0.094000
      8 C16          1.2450     2.9760    -0.4650 ca         1 1HO      -0.138000
      9 C17          2.2180     2.0450    -0.1650 ca         1 1HO       0.180000
     10 C1           2.7120    -2.6450    -0.1210 c2         1 1HO       0.848500
     11 C3           2.9300    -0.3540     0.5450 c6         1 1HO       0.179500
     12 C8           1.9120     0.7220     0.1330 ca         1 1HO      -0.092300
     13 C4           4.1890    -0.3850    -0.3440 c6         1 1HO       0.133000
     14 C5           4.8300    -1.7580    -0.3470 c6         1 1HO       0.108600
     15 C9           3.2840    -0.1460     2.0250 c3         1 1HO       0.193600
     16 N2           2.2700    -1.6360     0.5180 n2         1 1HO      -0.797900
     17 O6           3.8950    -2.7320    -0.7520 os         1 1HO      -0.463600
     18 F10          3.6520     1.1570     2.3080 f          1 1HO      -0.249000
     19 F11          3.8500    -0.0570    -1.6220 f          1 1HO      -0.093000
     20 F12          5.1490     0.4880     0.0540 f          1 1HO      -0.093000
     21 C13          0.5620     0.3920     0.1310 ca         1 1HO      -0.106000
     22 C14         -0.4430     1.3150    -0.1540 ca         1 1HO      -0.050000
     23 C21         -4.1270     0.6320    -0.1000 ca         1 1HO       0.305500
     24 N23         -3.9250    -0.6340     0.2470 nb         1 1HO      -0.683000
     25 C24         -4.9630    -1.4210     0.4380 ca         1 1HO       0.379900
     26 C25         -6.2730    -0.9650     0.2860 ca         1 1HO      -0.051000
     27 N29         -8.2440    -2.5750     0.6860 n1         1 1HO      -0.426000
     28 H1          -5.5160     2.2110    -0.5600 ha         1 1HO       0.159000
     29 H2          -7.4920     0.7410    -0.2100 ha         1 1HO       0.139000
     30 H3          -1.8650    -0.1400     0.1430 hn         1 1HO       0.182000
     31 H4          -0.8360     3.3730    -0.6950 ha         1 1HO       0.151000
     32 H5           1.5390     3.9900    -0.7020 ha         1 1HO       0.136000
     33 H6           5.6560    -1.7840    -1.0580 h1         1 1HO       0.086700
     34 H7           5.2230    -1.9920     0.6470 h1         1 1HO       0.086700
     35 H8           2.3950    -0.3860     2.6090 h1         1 1HO       0.056700
     36 H9           4.0950    -0.8100     2.3330 h1         1 1HO       0.056700
     37 H10          1.0320    -3.7580    -0.0190 hn         1 1HO       0.499000
     38 H11          2.3270    -4.5160    -0.8360 hn         1 1HO       0.499000
     39 H12          0.2940    -0.6290     0.3700 ha         1 1HO       0.139000
     40 H13         -4.7660    -2.4480     0.7220 h4         1 1HO       0.036100
     41 F18          3.4890     2.4710    -0.1890 f          1 1HO      -0.165000
     42 N7           2.0190    -3.7970    -0.2020 nv         1 1HO      -1.031200
@<TRIPOS>BOND
     1     1     3 ar  
     2     1    23 ar  
     3     1    28 1   
     4     2    26 1   
     5     2    27 3   
     6     3    26 ar  
     7     3    29 1   
     8     4     5 2   
     9     5     6 1   
    10     5    23 1   
    11     6    22 1   
    12     6    30 1   
    13     7     8 ar  
    14     7    22 ar  
    15     7    31 1   
    16     8     9 ar  
    17     8    32 1   
    18     9    12 ar  
    19     9    41 1   
    20    10    16 2   
    21    10    17 1   
    22    10    42 1   
    23    11    12 1   
    24    11    13 1   
    25    11    15 1   
    26    11    16 1   
    27    12    21 ar  
    28    13    14 1   
    29    13    19 1   
    30    13    20 1   
    31    14    17 1   
    32    14    33 1   
    33    14    34 1   
    34    15    18 1   
    35    15    35 1   
    36    15    36 1   
    37    21    22 ar  
    38    21    39 1   
    39    23    24 ar  
    40    24    25 ar  
    41    25    26 ar  
    42    25    40 1   
    43    37    42 1   
    44    38    42 1   
@<TRIPOS>SUBSTRUCTURE
     1 1HO         1 TEMP              0 ****  ****    0 ROOT
