@<TRIPOS>MOLECULE
1HP
   30    32     1     0     0
SMALL
No Charge or Current Charge


@<TRIPOS>ATOM
      1 CAI         -0.5970     0.6010     0.0110 ca         1 1HP      -0.063000
      2 CAQ         -1.9380     0.2080     0.0850 ca         1 1HP      -0.134200
      3 NAR         -3.0850     0.9300    -0.0480 na         1 1HP      -0.210600
      4 CAA         -3.1240     2.3840    -0.2880 c3         1 1HP       0.065900
      5 CAM         -4.1130     0.0150     0.1130 cc         1 1HP       0.653700
      6 NAB         -5.4100     0.3220     0.0360 nv         1 1HP      -1.017200
      7 NAK         -3.7000    -1.2220     0.3370 nd         1 1HP      -0.705700
      8 CAP         -2.3150    -1.0970     0.3190 ca         1 1HP       0.509000
      9 NAJ         -1.4230    -2.0810     0.4970 nb         1 1HP      -0.622000
     10 CAH         -0.1100    -1.7390     0.4340 ca         1 1HP       0.339900
     11 CAO          0.3750    -0.4160     0.1940 cp         1 1HP      -0.085000
     12 CAN          1.8420    -0.1160     0.1370 cp         1 1HP      -0.064000
     13 CAF          2.3510     1.1380     0.5640 ca         1 1HP      -0.062000
     14 CAD          3.7280     1.4180     0.5110 ca         1 1HP      -0.175500
     15 CAL          4.6240     0.4540     0.0330 ca         1 1HP       0.141100
     16 OAC          5.9560     0.7340    -0.0140 oh         1 1HP      -0.533100
     17 CAE          4.1460    -0.7940    -0.3950 ca         1 1HP      -0.175500
     18 CAG          2.7700    -1.0760    -0.3430 ca         1 1HP      -0.062000
     19 HAI         -0.3190     1.6320    -0.1920 ha         1 1HP       0.120000
     20 HAA1        -2.9070     2.5880    -1.3440 h1         1 1HP       0.051033
     21 HAA2        -4.1140     2.7840    -0.0370 h1         1 1HP       0.051033
     22 HAA3        -2.3740     2.8830     0.3390 h1         1 1HP       0.051033
     23 HAB1        -5.6530     1.1620    -0.4730 hn         1 1HP       0.484000
     24 HAB2        -6.0410    -0.4640    -0.0690 hn         1 1HP       0.484000
     25 HAH          0.5900    -2.5580     0.5950 h4         1 1HP       0.021100
     26 HAF          1.6760     1.8970     0.9530 ha         1 1HP       0.115500
     27 HAD          4.0980     2.3840     0.8460 ha         1 1HP       0.121000
     28 HOAC         6.4260    -0.0490    -0.3730 ho         1 1HP       0.465000
     29 HAE          4.8330    -1.5490    -0.7710 ha         1 1HP       0.121000
     30 HAG          2.4210    -2.0450    -0.6920 ha         1 1HP       0.115500
@<TRIPOS>BOND
     1     1     2 ar  
     2     1    11 ar  
     3     1    19 1   
     4     2     3 1   
     5     2     8 ar  
     6     3     4 1   
     7     3     5 1   
     8     4    20 1   
     9     4    21 1   
    10     4    22 1   
    11     5     6 1   
    12     5     7 2   
    13     6    23 1   
    14     6    24 1   
    15     7     8 1   
    16     8     9 ar  
    17     9    10 ar  
    18    10    11 ar  
    19    10    25 1   
    20    11    12 1   
    21    12    13 ar  
    22    12    18 ar  
    23    13    14 ar  
    24    13    26 1   
    25    14    15 ar  
    26    14    27 1   
    27    15    16 1   
    28    15    17 ar  
    29    16    28 1   
    30    17    18 ar  
    31    17    29 1   
    32    18    30 1   
@<TRIPOS>SUBSTRUCTURE
     1 1HP         1 TEMP              0 ****  ****    0 ROOT
