@<TRIPOS>MOLECULE
1HP
   30    32     1     0     0
SMALL
bcc


@<TRIPOS>ATOM
      1 CAI         -0.5470     0.6230    -0.0150 ca         1 1HP      -0.081000
      2 CAQ         -1.8700     0.2610     0.0620 ca         1 1HP      -0.199500
      3 NAR         -3.0560     0.9380    -0.0830 na         1 1HP      -0.181300
      4 CAA         -3.2310     2.3430    -0.3600 c3         1 1HP       0.036600
      5 CAM         -4.0450     0.0090     0.0780 cc         1 1HP       0.653700
      6 NAB         -5.3460     0.3580     0.0360 nv         1 1HP      -0.906800
      7 NAK         -3.5980    -1.2020     0.3300 nd         1 1HP      -0.705700
      8 CAP         -2.2400    -1.0740     0.3290 ca         1 1HP       0.574300
      9 NAJ         -1.3610    -2.0380     0.5360 nb         1 1HP      -0.622000
     10 CAH         -0.0800    -1.6860     0.4740 ca         1 1HP       0.405200
     11 CAO          0.3900    -0.3970     0.2010 cp         1 1HP      -0.150300
     12 CAN          1.8370    -0.1220     0.1490 cp         1 1HP      -0.064000
     13 CAF          2.3630     1.0780     0.6350 ca         1 1HP      -0.080000
     14 CAD          3.7200     1.3450     0.5930 ca         1 1HP      -0.193500
     15 CAL          4.6000     0.4060     0.0600 ca         1 1HP       0.141100
     16 OAC          5.9140     0.7080     0.0410 oh         1 1HP      -0.494100
     17 CAE          4.0960    -0.7960    -0.4290 ca         1 1HP      -0.193500
     18 CAG          2.7340    -1.0470    -0.3860 ca         1 1HP      -0.080000
     19 HAI         -0.2340     1.6320    -0.2520 ha         1 1HP       0.138000
     20 HAA1        -3.4730     2.5190    -1.4090 h1         1 1HP       0.051033
     21 HAA2        -4.0220     2.7560     0.2640 h1         1 1HP       0.051033
     22 HAA3        -2.3130     2.8730    -0.1220 h1         1 1HP       0.051033
     23 HAB1        -5.6190     1.1610    -0.5050 hn         1 1HP       0.428800
     24 HAB2        -6.0020    -0.4050    -0.0020 hn         1 1HP       0.428800
     25 HAH          0.6360    -2.4770     0.6690 h4         1 1HP       0.021100
     26 HAF          1.7050     1.8170     1.0760 ha         1 1HP       0.133500
     27 HAD          4.1030     2.2800     0.9840 ha         1 1HP       0.139000
     28 HOAC         6.4200    -0.0200    -0.3360 ho         1 1HP       0.426000
     29 HAE          4.7620    -1.5360    -0.8580 ha         1 1HP       0.139000
     30 HAG          2.3690    -1.9790    -0.7980 ha         1 1HP       0.133500
@<TRIPOS>BOND
     1     1     2 ar  
     2     1    11 ar  
     3     1    19 1   
     4     2     3 1   
     5     2     8 ar  
     6     3     4 1   
     7     3     5 1   
     8     4    20 1   
     9     4    21 1   
    10     4    22 1   
    11     5     6 1   
    12     5     7 2   
    13     6    23 1   
    14     6    24 1   
    15     7     8 1   
    16     8     9 ar  
    17     9    10 ar  
    18    10    11 ar  
    19    10    25 1   
    20    11    12 1   
    21    12    13 ar  
    22    12    18 ar  
    23    13    14 ar  
    24    13    26 1   
    25    14    15 ar  
    26    14    27 1   
    27    15    16 1   
    28    15    17 ar  
    29    16    28 1   
    30    17    18 ar  
    31    17    29 1   
    32    18    30 1   
@<TRIPOS>SUBSTRUCTURE
     1 1HP         1 TEMP              0 ****  ****    0 ROOT
