@<TRIPOS>MOLECULE
1HQ
   42    44     1     0     0
SMALL
abcg2


@<TRIPOS>ATOM
      1 C2           6.3380     0.2570     0.1230 ca         1 1HQ      -0.043000
      2 C3           5.2710     1.1290     0.2370 ca         1 1HQ      -0.105000
      3 C4           3.9870     0.6120     0.1410 ca         1 1HQ       0.304500
      4 N5           3.7360    -0.6780    -0.0540 nb         1 1HQ      -0.681000
      5 C6           4.7450    -1.5180    -0.1650 ca         1 1HQ       0.379900
      6 N9           1.6230     0.9030     0.1500 ns         1 1HQ      -0.121000
      7 C15         -2.2990     2.2520     0.2630 ca         1 1HQ       0.139000
      8 C1           6.0720    -1.0930    -0.0830 ca         1 1HQ      -0.050000
      9 C7           2.8040     1.5370     0.2570 c          1 1HQ       0.512600
     10 O8           2.9650     2.7320     0.4300 o          1 1HQ      -0.581100
     11 C10          7.1290    -2.0400    -0.2110 cg         1 1HQ       0.317000
     12 N11          7.9780    -2.8100    -0.3190 n1         1 1HQ      -0.426000
     13 C12          0.3300     1.4300     0.2000 ca         1 1HQ      -0.040000
     14 C13          0.0350     2.7770     0.3970 ca         1 1HQ      -0.103000
     15 C14         -1.2910     3.1780     0.4260 ca         1 1HQ      -0.128000
     16 C16         -2.0470     0.9000     0.0680 ca         1 1HQ      -0.084300
     17 C17         -0.7140     0.5190     0.0360 ca         1 1HQ      -0.100000
     18 C19         -3.1540    -0.1490    -0.0840 c6         1 1HQ       0.188500
     19 C20         -4.0660    -0.1150     1.1550 c6         1 1HQ      -0.143400
     20 C21         -4.8800    -1.3830     1.2800 c6         1 1HQ       0.170600
     21 O22         -4.0660    -2.5440     1.1430 os         1 1HQ      -0.481600
     22 C23         -3.0220    -2.4700     0.3120 c2         1 1HQ       0.844500
     23 N24         -2.5500    -1.4380    -0.2700 n2         1 1HQ      -0.776900
     24 C25         -3.9300     0.1850    -1.3660 c3         1 1HQ       0.178300
     25 F26         -3.0750     0.2500    -2.4210 f          1 1HQ      -0.117000
     26 F27         -4.8130    -0.8110    -1.6540 f          1 1HQ      -0.117000
     27 N28         -2.4790    -3.6950     0.1050 nv         1 1HQ      -1.016200
     28 H1           7.3560     0.6150     0.1920 ha         1 1HQ       0.140000
     29 H2           5.4350     2.1840     0.3970 ha         1 1HQ       0.158000
     30 H3           4.5080    -2.5630    -0.3240 h4         1 1HQ       0.037100
     31 H4           1.6920    -0.0980     0.0100 hn         1 1HQ       0.185000
     32 H5           0.8100     3.5130     0.5270 ha         1 1HQ       0.151000
     33 H6          -1.5390     4.2200     0.5760 ha         1 1HQ       0.135000
     34 H7          -0.4980    -0.5300    -0.1240 ha         1 1HQ       0.145000
     35 H8          -3.4320    -0.0110     2.0380 hc         1 1HQ       0.073700
     36 H9          -4.7460     0.7350     1.1500 hc         1 1HQ       0.073700
     37 H10         -5.3310    -1.4450     2.2700 h1         1 1HQ       0.066700
     38 H11         -5.6870    -1.4300     0.5480 h1         1 1HQ       0.066700
     39 H12         -4.4910     1.1180    -1.3160 h2         1 1HQ       0.065700
     40 H13         -2.6710    -4.4210     0.7760 hn         1 1HQ       0.487000
     41 H14         -1.5490    -3.7040    -0.2780 hn         1 1HQ       0.487000
     42 F18         -3.5700     2.7030     0.2980 f          1 1HQ      -0.191000
@<TRIPOS>BOND
     1     1     2 ar  
     2     1     8 ar  
     3     1    28 1   
     4     2     3 ar  
     5     2    29 1   
     6     3     4 ar  
     7     3     9 1   
     8     4     5 ar  
     9     5     8 ar  
    10     5    30 1   
    11     6     9 1   
    12     6    13 1   
    13     6    31 1   
    14     7    15 ar  
    15     7    16 ar  
    16     7    42 1   
    17     8    11 1   
    18     9    10 2   
    19    11    12 3   
    20    13    14 ar  
    21    13    17 ar  
    22    14    15 ar  
    23    14    32 1   
    24    15    33 1   
    25    16    17 ar  
    26    16    18 1   
    27    17    34 1   
    28    18    19 1   
    29    18    23 1   
    30    18    24 1   
    31    19    20 1   
    32    19    35 1   
    33    19    36 1   
    34    20    21 1   
    35    20    37 1   
    36    20    38 1   
    37    21    22 1   
    38    22    23 2   
    39    22    27 1   
    40    24    25 1   
    41    24    26 1   
    42    24    39 1   
    43    27    40 1   
    44    27    41 1   
@<TRIPOS>SUBSTRUCTURE
     1 1HQ         1 TEMP              0 ****  ****    0 ROOT
