@<TRIPOS>MOLECULE
1HQ
   42    44     1     0     0
SMALL
No Charge or Current Charge


@<TRIPOS>ATOM
      1 C2           6.5000     0.2430     0.1490 ca         1 1HQ      -0.043000
      2 C3           5.4050     1.1190     0.2380 ca         1 1HQ      -0.105000
      3 C4           4.0880     0.6140     0.1430 ca         1 1HQ       0.304500
      4 N5           3.8550    -0.7230    -0.0350 nb         1 1HQ      -0.681000
      5 C6           4.9160    -1.5640    -0.1210 ca         1 1HQ       0.379900
      6 N9           1.6570     0.9550     0.1330 ns         1 1HQ      -0.121000
      7 C15         -2.3740     2.2760     0.2170 ca         1 1HQ       0.139000
      8 C1           6.2470    -1.1280    -0.0350 ca         1 1HQ      -0.050000
      9 C7           2.8990     1.5750     0.2420 c          1 1HQ       0.512600
     10 O8           3.0420     2.7860     0.4030 o          1 1HQ      -0.581100
     11 C10          7.3180    -2.0730    -0.1340 cg         1 1HQ       0.317000
     12 N11          8.1980    -2.8360    -0.2130 n1         1 1HQ      -0.426000
     13 C12          0.3210     1.4490     0.1670 ca         1 1HQ      -0.040000
     14 C13          0.0000     2.8120     0.3290 ca         1 1HQ      -0.103000
     15 C14         -1.3420     3.2150     0.3550 ca         1 1HQ      -0.128000
     16 C16         -2.0880     0.8960     0.0440 ca         1 1HQ      -0.084300
     17 C17         -0.7210     0.5110     0.0280 ca         1 1HQ      -0.100000
     18 C19         -3.2370    -0.1590    -0.1070 c6         1 1HQ       0.188500
     19 C20         -4.0660    -0.1770     1.2140 c6         1 1HQ      -0.143400
     20 C21         -4.9110    -1.4520     1.3320 c6         1 1HQ       0.170600
     21 O22         -4.0630    -2.5920     1.1470 os         1 1HQ      -0.481600
     22 C23         -3.1630    -2.5720     0.1370 c2         1 1HQ       0.844500
     23 N24         -2.6780    -1.5170    -0.3850 n2         1 1HQ      -0.776900
     24 C25         -4.1410     0.2390    -1.3500 c3         1 1HQ       0.178300
     25 F26         -3.3980     0.4520    -2.4640 f          1 1HQ      -0.117000
     26 F27         -5.0540    -0.7100    -1.6710 f          1 1HQ      -0.117000
     27 N28         -2.6120    -3.7720    -0.0120 nv         1 1HQ      -1.016200
     28 H1           7.5190     0.6220     0.2210 ha         1 1HQ       0.140000
     29 H2           5.5740     2.1840     0.3810 ha         1 1HQ       0.158000
     30 H3           4.6820    -2.6190    -0.2630 h4         1 1HQ       0.037100
     31 H4           1.7230    -0.0470     0.0040 hn         1 1HQ       0.185000
     32 H5           0.7680     3.5710     0.4400 ha         1 1HQ       0.151000
     33 H6          -1.5890     4.2660     0.4850 ha         1 1HQ       0.135000
     34 H7          -0.4450    -0.5330    -0.0930 ha         1 1HQ       0.145000
     35 H8          -3.3850    -0.1300     2.0750 hc         1 1HQ       0.073700
     36 H9          -4.7190     0.7020     1.2900 hc         1 1HQ       0.073700
     37 H10         -5.3890    -1.5100     2.3200 h1         1 1HQ       0.066700
     38 H11         -5.7060    -1.4650     0.5730 h1         1 1HQ       0.066700
     39 H12         -4.6820     1.1600    -1.1180 h2         1 1HQ       0.065700
     40 H13         -2.7350    -4.3150     0.8290 hn         1 1HQ       0.487000
     41 H14         -1.6540    -3.6840    -0.3180 hn         1 1HQ       0.487000
     42 F18         -3.6450     2.7320     0.2600 f          1 1HQ      -0.191000
@<TRIPOS>BOND
     1     1     2 ar  
     2     1     8 ar  
     3     1    28 1   
     4     2     3 ar  
     5     2    29 1   
     6     3     4 ar  
     7     3     9 1   
     8     4     5 ar  
     9     5     8 ar  
    10     5    30 1   
    11     6     9 1   
    12     6    13 1   
    13     6    31 1   
    14     7    15 ar  
    15     7    16 ar  
    16     7    42 1   
    17     8    11 1   
    18     9    10 2   
    19    11    12 3   
    20    13    14 ar  
    21    13    17 ar  
    22    14    15 ar  
    23    14    32 1   
    24    15    33 1   
    25    16    17 ar  
    26    16    18 1   
    27    17    34 1   
    28    18    19 1   
    29    18    23 1   
    30    18    24 1   
    31    19    20 1   
    32    19    35 1   
    33    19    36 1   
    34    20    21 1   
    35    20    37 1   
    36    20    38 1   
    37    21    22 1   
    38    22    23 2   
    39    22    27 1   
    40    24    25 1   
    41    24    26 1   
    42    24    39 1   
    43    27    40 1   
    44    27    41 1   
@<TRIPOS>SUBSTRUCTURE
     1 1HQ         1 TEMP              0 ****  ****    0 ROOT
