@<TRIPOS>MOLECULE
1HR
   23    24     1     0     0
SMALL
bcc


@<TRIPOS>ATOM
      1 OAA         -5.0500    -0.8300    -1.4320 o          1 1HR      -0.830300
      2 CAJ         -4.4760    -0.8110    -0.3260 c          1 1HR       0.942600
      3 OAC         -4.5120    -1.6900     0.5570 o          1 1HR      -0.830300
      4 CAO         -3.6540     0.4330    -0.0300 cx         1 1HR      -0.178700
      5 CAI         -3.5970     0.9750     1.3520 cx         1 1HR      -0.089400
      6 CAP         -2.3920     0.2690     0.8110 cx         1 1HR      -0.280700
      7 CAK         -1.2100     1.0600     0.4210 c          1 1HR       0.619700
      8 OAB         -1.2690     2.2580     0.2180 o          1 1HR      -0.557100
      9 CAN          0.0950     0.3480     0.2580 ca         1 1HR      -0.141600
     10 CAH          1.2560     1.1140     0.1840 ca         1 1HR      -0.077000
     11 CAM          2.4880     0.5070     0.0230 ca         1 1HR       0.004400
     12 CL2          3.9080     1.4780    -0.0480 cl         1 1HR      -0.105400
     13 CAL          2.5730    -0.8790    -0.0860 ca         1 1HR       0.033400
     14 CLA          4.0940    -1.6500    -0.2900 cl         1 1HR      -0.103400
     15 CAF          1.4200    -1.6460    -0.0300 ca         1 1HR      -0.135000
     16 CAG          0.1900    -1.0370     0.1470 ca         1 1HR      -0.068000
     17 H2          -3.5790     1.1620    -0.8290 hc         1 1HR       0.070700
     18 H3          -3.5320     2.0470     1.4800 hc         1 1HR       0.066700
     19 H4          -4.1470     0.4490     2.1220 hc         1 1HR       0.066700
     20 H5          -2.2220    -0.7300     1.1870 hc         1 1HR       0.107700
     21 H6           1.2010     2.1910     0.2600 ha         1 1HR       0.164000
     22 H7           1.4860    -2.7210    -0.1230 ha         1 1HR       0.148000
     23 H8          -0.6890    -1.6650     0.1770 ha         1 1HR       0.171000
@<TRIPOS>BOND
     1     1     2 1   
     2     2     3 1   
     3     2     4 1   
     4     4     5 1   
     5     4     6 1   
     6     4    17 1   
     7     5     6 1   
     8     5    18 1   
     9     5    19 1   
    10     6     7 1   
    11     6    20 1   
    12     7     8 2   
    13     7     9 1   
    14     9    10 ar  
    15     9    16 ar  
    16    10    11 ar  
    17    10    21 1   
    18    11    12 1   
    19    11    13 ar  
    20    13    14 1   
    21    13    15 ar  
    22    15    16 ar  
    23    15    22 1   
    24    16    23 1   
@<TRIPOS>SUBSTRUCTURE
     1 1HR         1 TEMP              0 ****  ****    0 ROOT
