@<TRIPOS>MOLECULE
1HR
   23    24     1     0     0
SMALL
No Charge or Current Charge


@<TRIPOS>ATOM
      1 OAA         -5.1340    -0.9560    -0.8230 o          1 1HR      -0.725000
      2 CAJ         -4.0110    -1.0770    -0.3560 c          1 1HR       0.732000
      3 OAC         -3.4890    -2.1530    -0.1100 o          1 1HR      -0.725000
      4 CAO         -3.1970     0.1860    -0.1270 cx         1 1HR      -0.178700
      5 CAI         -3.7300     1.2170     0.8480 cx         1 1HR      -0.089400
      6 CAP         -2.4920     0.4190     1.2090 cx         1 1HR      -0.280700
      7 CAK         -1.1470     1.1200     1.2180 c          1 1HR       0.619700
      8 OAB         -1.0420     2.2390     1.7070 o          1 1HR      -0.557100
      9 CAN          0.0500     0.4050     0.6280 ca         1 1HR      -0.141600
     10 CAH          1.2560     1.1130     0.4170 ca         1 1HR      -0.059000
     11 CAM          2.3820     0.4730    -0.1300 ca         1 1HR       0.096000
     12 Cl2          3.8610     1.4050    -0.3750 cl         1 1HR      -0.197000
     13 CAL          2.3170    -0.8920    -0.4730 ca         1 1HR       0.125000
     14 ClA          3.7090    -1.7290    -1.1610 cl         1 1HR      -0.195000
     15 CAF          1.1270    -1.6060    -0.2640 ca         1 1HR      -0.117000
     16 CAG          0.0000    -0.9670     0.2830 ca         1 1HR      -0.050000
     17 H2          -2.7040     0.5680    -1.0160 hc         1 1HR       0.070700
     18 H3          -3.6130     2.2660     0.5820 hc         1 1HR       0.066700
     19 H4          -4.6510     0.9880     1.3800 hc         1 1HR       0.066700
     20 H5          -2.6100    -0.3420     1.9760 hc         1 1HR       0.107700
     21 H6           1.3260     2.1680     0.6740 ha         1 1HR       0.146000
     22 H7           1.0770    -2.6600    -0.5250 ha         1 1HR       0.130000
     23 H8          -0.9040    -1.5510     0.4400 ha         1 1HR       0.153000
@<TRIPOS>BOND
     1     1     2 1   
     2     2     3 1   
     3     2     4 1   
     4     4     5 1   
     5     4     6 1   
     6     4    17 1   
     7     5     6 1   
     8     5    18 1   
     9     5    19 1   
    10     6     7 1   
    11     6    20 1   
    12     7     8 2   
    13     7     9 1   
    14     9    10 ar  
    15     9    16 ar  
    16    10    11 ar  
    17    10    21 1   
    18    11    12 1   
    19    11    13 ar  
    20    13    14 1   
    21    13    15 ar  
    22    15    16 ar  
    23    15    22 1   
    24    16    23 1   
@<TRIPOS>SUBSTRUCTURE
     1 1HR         1 TEMP              0 ****  ****    0 ROOT
