@<TRIPOS>MOLECULE
1HS
   22    21     1     0     0
SMALL
No Charge or Current Charge


@<TRIPOS>ATOM
      1 CAK          5.1540    -1.2530     0.2130 c3         1 1HS      -0.126100
      2 CAJ          4.0990    -0.2190    -0.2210 c3         1 1HS       0.180300
      3 OAC          4.3030     0.9960     0.5060 oh         1 1HS      -0.648000
      4 CAI          2.6500    -0.7050     0.0200 c3         1 1HS       0.016600
      5 SAH          1.4240     0.6450    -0.3260 ss         1 1HS      -0.460000
      6 CAG         -0.1470    -0.2560     0.0380 c3         1 1HS       0.124600
      7 CAF         -1.3330     0.6930    -0.1840 c3         1 1HS      -0.345400
      8 SAE         -2.9100    -0.1080     0.1490 s6         1 1HS       1.321600
      9 OAD         -2.9440    -1.2270    -0.8030 o          1 1HS      -0.693867
     10 OAL         -2.8100    -0.5080     1.5600 o          1 1HS      -0.693867
     11 OAB         -3.8950     0.9490    -0.1170 o          1 1HS      -0.693867
     12 H1           5.0210    -2.1910    -0.3390 hc         1 1HS       0.035700
     13 H2           6.1650    -0.8810     0.0110 hc         1 1HS       0.035700
     14 H3           5.0730    -1.4700     1.2850 hc         1 1HS       0.035700
     15 H4           4.2170    -0.0340    -1.2990 h1         1 1HS       0.078700
     16 H5           3.4410     1.4660     0.4540 ho         1 1HS       0.436000
     17 H6           2.4390    -1.5620    -0.6320 h1         1 1HS       0.055700
     18 H7           2.5380    -1.0310     1.0620 h1         1 1HS       0.055700
     19 H8          -0.2250    -1.1280    -0.6260 h1         1 1HS       0.064200
     20 H9          -0.1270    -0.6080     1.0790 h1         1 1HS       0.064200
     21 H10         -1.2720     1.5540     0.4880 h1         1 1HS       0.078200
     22 H11         -1.3680     1.0330    -1.2230 h1         1 1HS       0.078200
@<TRIPOS>BOND
     1     1     2 1   
     2     1    12 1   
     3     1    13 1   
     4     1    14 1   
     5     2     3 1   
     6     2     4 1   
     7     2    15 1   
     8     3    16 1   
     9     4     5 1   
    10     4    17 1   
    11     4    18 1   
    12     5     6 1   
    13     6     7 1   
    14     6    19 1   
    15     6    20 1   
    16     7     8 1   
    17     7    21 1   
    18     7    22 1   
    19     8     9 1   
    20     8    10 1   
    21     8    11 1   
@<TRIPOS>SUBSTRUCTURE
     1 1HS         1 TEMP              0 ****  ****    0 ROOT
