@<TRIPOS>MOLECULE
1HS
   22    21     1     0     0
SMALL
bcc


@<TRIPOS>ATOM
      1 CAK          5.0350    -1.2040     0.1990 c3         1 1HS      -0.126100
      2 CAJ          3.9950    -0.2130    -0.3040 c3         1 1HS       0.157100
      3 OAC          4.3120     1.1170     0.0520 oh         1 1HS      -0.585800
      4 CAI          2.6030    -0.6040     0.1770 c3         1 1HS      -0.031300
      5 SAH          1.4030     0.6780    -0.2850 ss         1 1HS      -0.364200
      6 CAG         -0.1350    -0.2480    -0.0080 c3         1 1HS       0.076700
      7 CAF         -1.3170     0.6830    -0.1940 c3         1 1HS      -0.234600
      8 SAE         -2.8940    -0.1690     0.0270 s6         1 1HS       1.210800
      9 OAD         -2.9240    -1.2240    -1.0050 o          1 1HS      -0.693867
     10 OAL         -2.8680    -0.7060     1.4020 o          1 1HS      -0.693867
     11 OAB         -3.9210     0.8720    -0.1720 o          1 1HS      -0.693867
     12 H1           4.8030    -2.2160    -0.1330 hc         1 1HS       0.035700
     13 H2           6.0260    -0.9470    -0.1760 hc         1 1HS       0.035700
     14 H3           5.0730    -1.2110     1.2910 hc         1 1HS       0.035700
     15 H4           3.9930    -0.2250    -1.3970 h1         1 1HS       0.078700
     16 H5           4.3360     1.1770     1.0130 ho         1 1HS       0.397000
     17 H6           2.3100    -1.5510    -0.2810 h1         1 1HS       0.055700
     18 H7           2.5910    -0.7410     1.2630 h1         1 1HS       0.055700
     19 H8          -0.1880    -1.0800    -0.7120 h1         1 1HS       0.064200
     20 H9          -0.1300    -0.6550     1.0040 h1         1 1HS       0.064200
     21 H10         -1.2870     1.5020     0.5280 h1         1 1HS       0.078200
     22 H11         -1.3240     1.1180    -1.1950 h1         1 1HS       0.078200
@<TRIPOS>BOND
     1     1     2 1   
     2     1    12 1   
     3     1    13 1   
     4     1    14 1   
     5     2     3 1   
     6     2     4 1   
     7     2    15 1   
     8     3    16 1   
     9     4     5 1   
    10     4    17 1   
    11     4    18 1   
    12     5     6 1   
    13     6     7 1   
    14     6    19 1   
    15     6    20 1   
    16     7     8 1   
    17     7    21 1   
    18     7    22 1   
    19     8     9 1   
    20     8    10 1   
    21     8    11 1   
@<TRIPOS>SUBSTRUCTURE
     1 1HS         1 TEMP              0 ****  ****    0 ROOT
