@<TRIPOS>MOLECULE
1HT
  107   109     1     0     0
SMALL
abcg2


@<TRIPOS>ATOM
      1 CAB         11.4980     2.4650    -1.1780 c3         1 1HT      -0.089100
      2 CAR         10.4370     1.9850    -0.1980 c3         1 1HT      -0.074400
      3 CAU          9.0820     1.7580    -0.8570 c3         1 1HT      -0.076400
      4 CAV          8.0090     1.2820     0.1150 c3         1 1HT      -0.074400
      5 CAW          6.6660     1.0350    -0.5590 c3         1 1HT      -0.076400
      6 CAX          5.5830     0.5830     0.4120 c3         1 1HT      -0.066400
      7 CBA          4.2750     0.2950    -0.3060 c3         1 1HT      -0.141400
      8 CBL          3.1490    -0.0970     0.6090 c          1 1HT       0.605100
      9 OAL          3.2470    -0.3070     1.7890 o          1 1HT      -0.483000
     10 OBD          1.9990    -0.1770    -0.0670 os         1 1HT      -0.445100
     11 CBT          0.8240    -0.6200     0.5970 c5         1 1HT       0.149300
     12 CBV         -0.4130     0.0800     0.0190 c5         1 1HT      -0.040500
     13 CBX         -0.7400     1.4290     0.7040 c3         1 1HT       0.229000
     14 OBG          0.4900     2.1940     0.8420 os         1 1HT      -0.472100
     15 CBI          1.2270     2.6460    -0.1720 c          1 1HT       0.610100
     16 OAJ          0.9870     2.4710    -1.3390 o          1 1HT      -0.493000
     17 CAE          2.4040     3.4220     0.3470 c3         1 1HT      -0.161100
     18 CAI         -1.1530     1.2360     2.1600 c3         1 1HT      -0.089100
     19 CBB         -1.7380     2.3040    -0.0790 c3         1 1HT      -0.106400
     20 CBR         -3.1770     1.8280    -0.2720 c3         1 1HT       0.208300
     21 OBC         -3.8350     1.8100     0.9820 os         1 1HT      -0.454100
     22 CBK         -4.8590     2.6360     1.2180 c          1 1HT       0.615100
     23 OAK         -5.1970     3.5130     0.4680 o          1 1HT      -0.483000
     24 CAY         -5.4940     2.3230     2.5420 c3         1 1HT      -0.138400
     25 CAS         -6.6120     3.2750     2.9310 c3         1 1HT      -0.067400
     26 CAC         -7.2110     2.9060     4.2810 c3         1 1HT      -0.092100
     27 CBY         -3.3060     0.4410    -0.9410 c5         1 1HT       0.176000
     28 OBH         -2.4420     0.5850    -2.0640 os         1 1HT      -0.462100
     29 CBM         -2.1270    -0.3820    -2.9350 c          1 1HT       0.601100
     30 OAM         -2.6250    -1.4750    -2.9270 o          1 1HT      -0.466000
     31 CAZ         -1.0870     0.1000    -3.9050 c3         1 1HT      -0.138400
     32 CAT         -0.8210    -0.8690    -5.0470 c3         1 1HT      -0.067400
     33 CAD          0.2660    -0.3450    -5.9740 c3         1 1HT      -0.092100
     34 CBW         -4.7290     0.0250    -1.3880 c5         1 1HT       0.059000
     35 CAH         -5.1940     0.5340    -2.7360 c3         1 1HT      -0.104100
     36 OAP         -5.6160     0.4220    -0.3650 oh         1 1HT      -0.656000
     37 CBP         -4.6540    -1.4990    -1.2660 c          1 1HT       0.654100
     38 OAO         -5.4070    -2.3020    -1.7370 o          1 1HT      -0.478000
     39 OBF         -3.6910    -1.8390    -0.4130 os         1 1HT      -0.402100
     40 CBU         -2.9310    -0.7080     0.0140 c5         1 1HT       0.211500
     41 CBQ         -1.4690    -1.0100     0.1410 c2         1 1HT      -0.147400
     42 CBN         -0.9300    -2.2100     0.3740 c2         1 1HT      -0.053400
     43 CAG         -1.5770    -3.5490     0.5160 c3         1 1HT      -0.045900
     44 CBS          0.5700    -2.1070     0.3770 c5         1 1HT       0.174500
     45 OBE          1.1100    -2.8950     1.4320 os         1 1HT      -0.435100
     46 CBO          2.3500    -3.3760     1.3240 c          1 1HT       0.610300
     47 OAN          3.0410    -3.2050     0.3480 o          1 1HT      -0.499000
     48 CBJ          2.7410    -4.1260     2.5420 ce         1 1HT      -0.170400
     49 CAF          1.7340    -4.3100     3.6380 c3         1 1HT      -0.040900
     50 CAQ          3.9980    -4.5830     2.5980 c2         1 1HT      -0.137200
     51 CAA          4.6000    -5.3390     3.7370 c3         1 1HT      -0.068900
     52 H1          12.4630     2.6020    -0.6890 hc         1 1HT       0.031367
     53 H2          11.6390     1.7480    -1.9900 hc         1 1HT       0.031367
     54 H3          11.2180     3.4190    -1.6290 hc         1 1HT       0.031367
     55 H4          10.7700     1.0550     0.2740 hc         1 1HT       0.037200
     56 H5          10.3290     2.7130     0.6110 hc         1 1HT       0.037200
     57 H6           8.7520     2.6870    -1.3340 hc         1 1HT       0.037200
     58 H7           8.3440     0.3610     0.6040 hc         1 1HT       0.039200
     59 H8           6.3390     1.9500    -1.0650 hc         1 1HT       0.038200
     60 H9           6.7890     0.2820    -1.3450 hc         1 1HT       0.038200
     61 H10          5.9160    -0.3140     0.9410 hc         1 1HT       0.052200
     62 H11          5.4320     1.3550     1.1730 hc         1 1HT       0.052200
     63 H12          3.9610     1.1570    -0.9010 hc         1 1HT       0.076700
     64 H13          4.4080    -0.5170    -1.0290 hc         1 1HT       0.076700
     65 H14          0.9030    -0.4420     1.6710 h1         1 1HT       0.093700
     66 H15         -0.2160     0.2760    -1.0370 hc         1 1HT       0.097700
     67 H16          3.0020     2.8210     1.0320 hc         1 1HT       0.070033
     68 H17          3.0290     3.7570    -0.4760 hc         1 1HT       0.070033
     69 H18          2.0620     4.2930     0.9080 hc         1 1HT       0.070033
     70 H19         -0.3300     0.8320     2.7490 hc         1 1HT       0.052367
     71 H20         -1.4440     2.1860     2.6080 hc         1 1HT       0.052367
     72 H21         -1.9880     0.5500     2.2700 hc         1 1HT       0.052367
     73 H22         -1.8080     3.2640     0.4430 hc         1 1HT       0.077200
     74 H23         -1.3340     2.5270    -1.0620 hc         1 1HT       0.077200
     75 H24         -3.6540     2.5570    -0.9320 h1         1 1HT       0.088700
     76 H27         -5.8640     1.2930     2.4940 hc         1 1HT       0.073700
     77 H28         -4.7100     2.3140     3.3060 hc         1 1HT       0.073700
     78 H29         -6.2320     4.2980     2.9660 hc         1 1HT       0.053700
     79 H30         -7.3920     3.2610     2.1670 hc         1 1HT       0.053700
     80 H31         -8.0190     3.5850     4.5530 hc         1 1HT       0.034700
     81 H32         -7.6200     1.8940     4.2700 hc         1 1HT       0.034700
     82 H33         -6.4620     2.9500     5.0730 hc         1 1HT       0.034700
     83 H36         -1.3960     1.0770    -4.2870 hc         1 1HT       0.081200
     84 H37         -0.5250    -1.8410    -4.6480 hc         1 1HT       0.053700
     85 H38          0.4480    -1.0380    -6.7950 hc         1 1HT       0.036367
     86 H39         -0.0090     0.6180    -6.4080 hc         1 1HT       0.036367
     87 H40          1.2080    -0.2080    -5.4390 hc         1 1HT       0.036367
     88 H41         -4.6490     0.1150    -3.5760 hc         1 1HT       0.058700
     89 H42         -6.2410     0.2610    -2.8770 hc         1 1HT       0.058700
     90 H43         -5.1270     1.6210    -2.7810 hc         1 1HT       0.058700
     91 H44         -6.5170     0.2220    -0.6470 ho         1 1HT       0.467000
     92 H47         -3.3160    -0.4420     1.0040 h1         1 1HT       0.098700
     93 H50         -1.7340    -4.0070    -0.4630 hc         1 1HT       0.057700
     94 H51         -0.9440    -4.2230     1.0920 hc         1 1HT       0.057700
     95 H52         -2.5410    -3.4970     1.0150 hc         1 1HT       0.057700
     96 H53          0.9740    -2.4420    -0.5850 h1         1 1HT       0.095700
     97 H55          1.3780    -3.3530     4.0220 hc         1 1HT       0.045700
     98 H56          0.8570    -4.8600     3.2920 hc         1 1HT       0.045700
     99 H57          2.1560    -4.8610     4.4750 hc         1 1HT       0.045700
    100 H58          4.6490    -4.3840     1.7540 ha         1 1HT       0.192000
    101 H60          4.0150    -6.2220     3.9980 hc         1 1HT       0.048700
    102 H61          5.6090    -5.6670     3.4980 hc         1 1HT       0.048700
    103 H62          4.6570    -4.7220     4.6360 hc         1 1HT       0.048700
    104 H63          9.1910     1.0250    -1.6640 hc         1 1HT       0.037200
    105 H64          7.8860     2.0230     0.9120 hc         1 1HT       0.039200
    106 H25         -0.1640     0.2910    -3.3460 hc         1 1HT       0.081200
    107 H26         -1.7410    -1.0310    -5.6130 hc         1 1HT       0.053700
@<TRIPOS>BOND
     1     1     2 1   
     2     1    52 1   
     3     1    53 1   
     4     1    54 1   
     5     2     3 1   
     6     2    55 1   
     7     2    56 1   
     8     3     4 1   
     9     3    57 1   
    10     3   104 1   
    11     4     5 1   
    12     4    58 1   
    13     4   105 1   
    14     5     6 1   
    15     5    59 1   
    16     5    60 1   
    17     6     7 1   
    18     6    61 1   
    19     6    62 1   
    20     7     8 1   
    21     7    63 1   
    22     7    64 1   
    23     8     9 2   
    24     8    10 1   
    25    10    11 1   
    26    11    12 1   
    27    11    44 1   
    28    11    65 1   
    29    12    13 1   
    30    12    41 1   
    31    12    66 1   
    32    13    14 1   
    33    13    18 1   
    34    13    19 1   
    35    14    15 1   
    36    15    16 2   
    37    15    17 1   
    38    17    67 1   
    39    17    68 1   
    40    17    69 1   
    41    18    70 1   
    42    18    71 1   
    43    18    72 1   
    44    19    20 1   
    45    19    73 1   
    46    19    74 1   
    47    20    21 1   
    48    20    27 1   
    49    20    75 1   
    50    21    22 1   
    51    22    23 2   
    52    22    24 1   
    53    24    25 1   
    54    24    76 1   
    55    24    77 1   
    56    25    26 1   
    57    25    78 1   
    58    25    79 1   
    59    26    80 1   
    60    26    81 1   
    61    26    82 1   
    62    27    28 1   
    63    27    34 1   
    64    27    40 1   
    65    28    29 1   
    66    29    30 2   
    67    29    31 1   
    68    31    32 1   
    69    31    83 1   
    70    31   106 1   
    71    32    33 1   
    72    32    84 1   
    73    32   107 1   
    74    33    85 1   
    75    33    86 1   
    76    33    87 1   
    77    34    35 1   
    78    34    36 1   
    79    34    37 1   
    80    35    88 1   
    81    35    89 1   
    82    35    90 1   
    83    36    91 1   
    84    37    38 2   
    85    37    39 1   
    86    39    40 1   
    87    40    41 1   
    88    40    92 1   
    89    41    42 2   
    90    42    43 1   
    91    42    44 1   
    92    43    93 1   
    93    43    94 1   
    94    43    95 1   
    95    44    45 1   
    96    44    96 1   
    97    45    46 1   
    98    46    47 2   
    99    46    48 1   
   100    48    49 1   
   101    48    50 2   
   102    49    97 1   
   103    49    98 1   
   104    49    99 1   
   105    50    51 1   
   106    50   100 1   
   107    51   101 1   
   108    51   102 1   
   109    51   103 1   
@<TRIPOS>SUBSTRUCTURE
     1 1HT         1 TEMP              0 ****  ****    0 ROOT
