@<TRIPOS>MOLECULE
1HT
  107   109     1     0     0
SMALL
No Charge or Current Charge


@<TRIPOS>ATOM
      1 CAB          9.0590     3.7350    -4.2770 c3         1 1HT      -0.089100
      2 CAR          7.9250     3.5450    -3.2510 c3         1 1HT      -0.074400
      3 CAU          7.5900     2.0610    -2.9880 c3         1 1HT      -0.076400
      4 CAV          6.4520     1.8720    -1.9610 c3         1 1HT      -0.074400
      5 CAW          6.1120     0.3890    -1.7030 c3         1 1HT      -0.076400
      6 CAX          4.9560     0.2060    -0.6970 c3         1 1HT      -0.066400
      7 CBA          4.5610    -1.2750    -0.4880 c3         1 1HT      -0.141400
      8 CBL          3.4300    -1.4090     0.5310 c          1 1HT       0.605100
      9 OAL          3.6280    -1.4760     1.7360 o          1 1HT      -0.483000
     10 OBD          2.2090    -1.1910    -0.0630 os         1 1HT      -0.445100
     11 CBT          1.0440    -1.3110     0.8020 c5         1 1HT       0.149300
     12 CBV         -0.0060    -0.2340     0.3320 c5         1 1HT      -0.040500
     13 CBX         -0.3150     0.8470     1.4400 c3         1 1HT       0.229000
     14 OBG          0.9340     1.2470     2.0680 os         1 1HT      -0.472100
     15 CBI          1.9850     1.8210     1.3860 c          1 1HT       0.610100
     16 OAJ          2.0150     2.0780     0.1930 o          1 1HT      -0.493000
     17 CAE          3.1500     2.0990     2.3210 c3         1 1HT      -0.161100
     18 CAI         -1.0890     0.2250     2.6360 c3         1 1HT      -0.089100
     19 CBB         -1.0030     2.1670     0.9360 c3         1 1HT      -0.106400
     20 CBR         -2.3990     2.0670     0.2530 c3         1 1HT       0.208300
     21 OBC         -3.3440     1.6460     1.2630 os         1 1HT      -0.454100
     22 CBK         -3.8490     2.5710     2.1370 c          1 1HT       0.615100
     23 OAK         -3.6050     3.7690     2.1050 o          1 1HT      -0.483000
     24 CAY         -4.8220     1.9310     3.1270 c3         1 1HT      -0.138400
     25 CAS         -6.2740     1.9770     2.5960 c3         1 1HT      -0.067400
     26 CAC         -7.2880     1.3290     3.5580 c3         1 1HT      -0.092100
     27 CBY         -2.4560     1.1040    -0.9890 c5         1 1HT       0.176000
     28 OBH         -1.2630     1.4680    -1.8000 os         1 1HT      -0.462100
     29 CBM         -0.8190     0.7580    -2.9000 c          1 1HT       0.601100
     30 OAM         -1.3970    -0.1490    -3.4700 o          1 1HT      -0.466000
     31 CAZ          0.4200     1.4300    -3.4980 c3         1 1HT      -0.138400
     32 CAT          1.6870     0.5530    -3.3520 c3         1 1HT      -0.067400
     33 CAD          2.9390     1.1970    -3.9760 c3         1 1HT      -0.092100
     34 CBW         -3.7840     1.1890    -1.8550 c5         1 1HT       0.059000
     35 CAH         -3.7700     2.2230    -3.0190 c3         1 1HT      -0.104100
     36 OAP         -4.9440     1.5530    -1.0680 oh         1 1HT      -0.656000
     37 CBP         -3.9630    -0.2910    -2.3430 c          1 1HT       0.654100
     38 OAO         -4.6370    -0.6770    -3.2890 o          1 1HT      -0.478000
     39 OBF         -3.1320    -1.1200    -1.6370 os         1 1HT      -0.402100
     40 CBU         -2.5210    -0.4090    -0.5410 c5         1 1HT       0.211500
     41 CBQ         -1.1920    -1.0920    -0.1370 c2         1 1HT      -0.147400
     42 CBN         -1.0150    -2.4090     0.0320 c2         1 1HT      -0.053400
     43 CAG         -2.0290    -3.5320    -0.1340 c3         1 1HT      -0.045900
     44 CBS          0.3810    -2.7090     0.5250 c5         1 1HT       0.174500
     45 OBE          0.2530    -3.4050     1.7950 os         1 1HT      -0.435100
     46 CBO          1.3710    -4.0880     2.2140 c          1 1HT       0.610300
     47 OAN          2.3620    -4.2840     1.5210 o          1 1HT      -0.499000
     48 CBJ          1.2110    -4.6320     3.6130 ce         1 1HT      -0.170400
     49 CAF         -0.0920    -4.3080     4.3470 c3         1 1HT      -0.040900
     50 CAQ          2.2050    -5.3670     4.1790 c2         1 1HT      -0.137200
     51 CAA          2.2150    -5.9820     5.5650 c3         1 1HT      -0.068900
     52 H1           9.2610     4.8020    -4.4310 hc         1 1HT       0.031367
     53 H2           9.9820     3.2580    -3.9280 hc         1 1HT       0.031367
     54 H3           8.7850     3.2950    -5.2440 hc         1 1HT       0.031367
     55 H4           8.2140     4.0260    -2.3080 hc         1 1HT       0.037200
     56 H5           7.0280     4.0630    -3.6120 hc         1 1HT       0.037200
     57 H6           7.3030     1.5840    -3.9340 hc         1 1HT       0.037200
     58 H7           6.7380     2.3470    -1.0140 hc         1 1HT       0.039200
     59 H8           5.8440    -0.0900    -2.6530 hc         1 1HT       0.038200
     60 H9           7.0040    -0.1280    -1.3260 hc         1 1HT       0.038200
     61 H10          5.2450     0.6430     0.2670 hc         1 1HT       0.052200
     62 H11          4.0820     0.7640    -1.0510 hc         1 1HT       0.052200
     63 H12          4.2140    -1.6610    -1.4530 hc         1 1HT       0.076700
     64 H13          5.4330    -1.8360    -0.1350 hc         1 1HT       0.076700
     65 H14          1.2970    -1.1750     1.8610 h1         1 1HT       0.093700
     66 H15          0.4120     0.3010    -0.5190 hc         1 1HT       0.097700
     67 H16          3.4150     1.1720     2.8420 hc         1 1HT       0.070033
     68 H17          4.0100     2.5390     1.8040 hc         1 1HT       0.070033
     69 H18          2.7980     2.7330     3.1420 hc         1 1HT       0.070033
     70 H19         -0.4900    -0.5420     3.1400 hc         1 1HT       0.052367
     71 H20         -1.3360     0.9920     3.3810 hc         1 1HT       0.052367
     72 H21         -2.0230    -0.2520     2.3230 hc         1 1HT       0.052367
     73 H22         -1.0740     2.8620     1.7800 hc         1 1HT       0.077200
     74 H23         -0.3520     2.6770     0.2210 hc         1 1HT       0.077200
     75 H24         -2.6670     3.0630    -0.1250 h1         1 1HT       0.088700
     76 H27         -4.5530     0.8750     3.2560 hc         1 1HT       0.073700
     77 H28         -4.7690     2.4650     4.0820 hc         1 1HT       0.073700
     78 H29         -6.5640     3.0210     2.4200 hc         1 1HT       0.053700
     79 H30         -6.3230     1.4650     1.6260 hc         1 1HT       0.053700
     80 H31         -8.3010     1.3860     3.1410 hc         1 1HT       0.034700
     81 H32         -7.0450     0.2720     3.7240 hc         1 1HT       0.034700
     82 H33         -7.2870     1.8420     4.5270 hc         1 1HT       0.034700
     83 H36          0.2360     1.6080    -4.5640 hc         1 1HT       0.081200
     84 H37          1.8830     0.3610    -2.2910 hc         1 1HT       0.053700
     85 H38          3.8020     0.5300    -3.8740 hc         1 1HT       0.036367
     86 H39          2.7840     1.3950    -5.0440 hc         1 1HT       0.036367
     87 H40          3.1760     2.1450    -3.4780 hc         1 1HT       0.036367
     88 H41         -3.0310     1.9760    -3.7890 hc         1 1HT       0.058700
     89 H42         -4.7410     2.2710    -3.5260 hc         1 1HT       0.058700
     90 H43         -3.5390     3.2290    -2.6490 hc         1 1HT       0.058700
     91 H44         -5.7330     1.5290    -1.6560 ho         1 1HT       0.467000
     92 H47         -3.2280    -0.5070     0.2940 h1         1 1HT       0.098700
     93 H50         -1.7710    -4.1640    -0.9920 hc         1 1HT       0.057700
     94 H51         -2.0510    -4.1750     0.7530 hc         1 1HT       0.057700
     95 H52         -3.0520    -3.1730    -0.2780 hc         1 1HT       0.057700
     96 H53          0.9330    -3.3140    -0.2090 h1         1 1HT       0.095700
     97 H55         -0.2550    -3.2250     4.4040 hc         1 1HT       0.045700
     98 H56         -0.9540    -4.7460     3.8290 hc         1 1HT       0.045700
     99 H57         -0.1110    -4.6850     5.3750 hc         1 1HT       0.045700
    100 H58          3.1210    -5.5670     3.6180 ha         1 1HT       0.192000
    101 H60          1.3800    -6.6810     5.6950 hc         1 1HT       0.048700
    102 H61          3.1430    -6.5380     5.7440 hc         1 1HT       0.048700
    103 H62          2.1370    -5.2110     6.3420 hc         1 1HT       0.048700
    104 H63          8.4890     1.5460    -2.6290 hc         1 1HT       0.037200
    105 H64          5.5550     2.3910    -2.3200 hc         1 1HT       0.039200
    106 H25          0.6030     2.3810    -2.9850 hc         1 1HT       0.081200
    107 H26          1.5130    -0.4220    -3.8250 hc         1 1HT       0.053700
@<TRIPOS>BOND
     1     1     2 1   
     2     1    52 1   
     3     1    53 1   
     4     1    54 1   
     5     2     3 1   
     6     2    55 1   
     7     2    56 1   
     8     3     4 1   
     9     3    57 1   
    10     3   104 1   
    11     4     5 1   
    12     4    58 1   
    13     4   105 1   
    14     5     6 1   
    15     5    59 1   
    16     5    60 1   
    17     6     7 1   
    18     6    61 1   
    19     6    62 1   
    20     7     8 1   
    21     7    63 1   
    22     7    64 1   
    23     8     9 2   
    24     8    10 1   
    25    10    11 1   
    26    11    12 1   
    27    11    44 1   
    28    11    65 1   
    29    12    13 1   
    30    12    41 1   
    31    12    66 1   
    32    13    14 1   
    33    13    18 1   
    34    13    19 1   
    35    14    15 1   
    36    15    16 2   
    37    15    17 1   
    38    17    67 1   
    39    17    68 1   
    40    17    69 1   
    41    18    70 1   
    42    18    71 1   
    43    18    72 1   
    44    19    20 1   
    45    19    73 1   
    46    19    74 1   
    47    20    21 1   
    48    20    27 1   
    49    20    75 1   
    50    21    22 1   
    51    22    23 2   
    52    22    24 1   
    53    24    25 1   
    54    24    76 1   
    55    24    77 1   
    56    25    26 1   
    57    25    78 1   
    58    25    79 1   
    59    26    80 1   
    60    26    81 1   
    61    26    82 1   
    62    27    28 1   
    63    27    34 1   
    64    27    40 1   
    65    28    29 1   
    66    29    30 2   
    67    29    31 1   
    68    31    32 1   
    69    31    83 1   
    70    31   106 1   
    71    32    33 1   
    72    32    84 1   
    73    32   107 1   
    74    33    85 1   
    75    33    86 1   
    76    33    87 1   
    77    34    35 1   
    78    34    36 1   
    79    34    37 1   
    80    35    88 1   
    81    35    89 1   
    82    35    90 1   
    83    36    91 1   
    84    37    38 2   
    85    37    39 1   
    86    39    40 1   
    87    40    41 1   
    88    40    92 1   
    89    41    42 2   
    90    42    43 1   
    91    42    44 1   
    92    43    93 1   
    93    43    94 1   
    94    43    95 1   
    95    44    45 1   
    96    44    96 1   
    97    45    46 1   
    98    46    47 2   
    99    46    48 1   
   100    48    49 1   
   101    48    50 2   
   102    49    97 1   
   103    49    98 1   
   104    49    99 1   
   105    50    51 1   
   106    50   100 1   
   107    51   101 1   
   108    51   102 1   
   109    51   103 1   
@<TRIPOS>SUBSTRUCTURE
     1 1HT         1 TEMP              0 ****  ****    0 ROOT
