@<TRIPOS>MOLECULE
1HU
   27    28     1     0     0
SMALL
No Charge or Current Charge


@<TRIPOS>ATOM
      1 CAA          4.6370    -1.0560    -0.7840 c3         1 1HU       0.145100
      2 NAI          3.7830    -0.3820     0.2120 n7         1 1HU      -0.859400
      3 CAG          2.4110    -0.0740    -0.2460 c3         1 1HU       0.154800
      4 CAH          1.5930     0.6040     0.8740 c3         1 1HU      -0.003200
      5 CAK          0.1850     0.9390     0.4500 cc         1 1HU      -0.138400
      6 CAM         -0.8860     0.0110     0.2170 ca         1 1HU      -0.096800
      7 CAE         -0.9180    -1.3870     0.3320 ca         1 1HU      -0.059000
      8 CAC         -2.1300    -2.0470     0.0360 ca         1 1HU      -0.143000
      9 CAB         -3.2680    -1.3060    -0.3620 ca         1 1HU      -0.091000
     10 CAD         -3.2010     0.1010    -0.4640 ca         1 1HU      -0.131000
     11 CAL         -1.9840     0.7280    -0.1640 ca         1 1HU      -0.046200
     12 NAJ         -1.7000     2.0810    -0.1930 na         1 1HU      -0.225700
     13 CAF         -0.3420     2.2010     0.1940 cd         1 1HU      -0.160100
     14 H1           4.1980    -2.0150    -1.0920 h1         1 1HU       0.028367
     15 H2           4.7630    -0.4320    -1.6790 h1         1 1HU       0.028367
     16 H3           5.6330    -1.2570    -0.3660 h1         1 1HU       0.028367
     17 H4           4.2370     0.5020     0.4760 hn         1 1HU       0.401000
     18 H6           2.4400     0.5950    -1.1170 h1         1 1HU       0.032700
     19 H7           1.8980    -0.9960    -0.5540 h1         1 1HU       0.032700
     20 H8           1.5620    -0.0580     1.7480 hc         1 1HU       0.048200
     21 H9           2.1070     1.5190     1.1930 hc         1 1HU       0.048200
     22 H10         -0.0390    -1.9470     0.6420 ha         1 1HU       0.117000
     23 H11         -2.1890    -3.1300     0.1150 ha         1 1HU       0.110000
     24 H12         -4.1990    -1.8210    -0.5880 ha         1 1HU       0.109000
     25 H13         -4.0710     0.6790    -0.7670 ha         1 1HU       0.111000
     26 H14         -2.3350     2.8340    -0.4410 hn         1 1HU       0.349000
     27 H15          0.1490     3.1690     0.2540 h4         1 1HU       0.210000
@<TRIPOS>BOND
     1     1     2 1   
     2     1    14 1   
     3     1    15 1   
     4     1    16 1   
     5     2     3 1   
     6     2    17 1   
     7     3     4 1   
     8     3    18 1   
     9     3    19 1   
    10     4     5 1   
    11     4    20 1   
    12     4    21 1   
    13     5     6 1   
    14     5    13 2   
    15     6     7 ar  
    16     6    11 ar  
    17     7     8 ar  
    18     7    22 1   
    19     8     9 ar  
    20     8    23 1   
    21     9    10 ar  
    22     9    24 1   
    23    10    11 ar  
    24    10    25 1   
    25    11    12 1   
    26    12    13 1   
    27    12    26 1   
    28    13    27 1   
@<TRIPOS>SUBSTRUCTURE
     1 1HU         1 TEMP              0 ****  ****    0 ROOT
