@<TRIPOS>MOLECULE
1HU
   27    28     1     0     0
SMALL
abcg2


@<TRIPOS>ATOM
      1 CAA          4.5550    -1.0100    -0.7990 c3         1 1HU       0.145100
      2 NAI          3.7580    -0.3770     0.2320 n7         1 1HU      -0.859400
      3 CAG          2.4250    -0.0400    -0.2230 c3         1 1HU       0.154800
      4 CAH          1.6110     0.6180     0.8890 c3         1 1HU      -0.003200
      5 CAK          0.2130     0.9250     0.4670 cc         1 1HU      -0.138400
      6 CAM         -0.8400    -0.0210     0.2350 ca         1 1HU      -0.096800
      7 CAE         -0.9340    -1.4130     0.3490 ca         1 1HU      -0.059000
      8 CAC         -2.1310    -2.0310     0.0460 ca         1 1HU      -0.143000
      9 CAB         -3.2450    -1.2850    -0.3730 ca         1 1HU      -0.091000
     10 CAD         -3.1850     0.0910    -0.4920 ca         1 1HU      -0.131000
     11 CAL         -1.9750     0.7110    -0.1830 ca         1 1HU      -0.046200
     12 NAJ         -1.6240     2.0280    -0.2020 na         1 1HU      -0.225700
     13 CAF         -0.3180     2.1530     0.1860 cd         1 1HU      -0.160100
     14 H1           4.1150    -1.9740    -1.0650 h1         1 1HU       0.028367
     15 H2           4.6430    -0.4250    -1.7250 h1         1 1HU       0.028367
     16 H3           5.5610    -1.2000    -0.4270 h1         1 1HU       0.028367
     17 H4           4.2250     0.4720     0.5280 hn         1 1HU       0.401000
     18 H6           2.4270     0.6230    -1.1040 h1         1 1HU       0.032700
     19 H7           1.9280    -0.9630    -0.5390 h1         1 1HU       0.032700
     20 H8           1.6070    -0.0460     1.7590 hc         1 1HU       0.048200
     21 H9           2.1100     1.5400     1.2020 hc         1 1HU       0.048200
     22 H10         -0.0810    -1.9990     0.6700 ha         1 1HU       0.117000
     23 H11         -2.2170    -3.1070     0.1300 ha         1 1HU       0.110000
     24 H12         -4.1700    -1.7970    -0.6080 ha         1 1HU       0.109000
     25 H13         -4.0470     0.6630    -0.8130 ha         1 1HU       0.111000
     26 H14         -2.2260     2.7930    -0.4540 hn         1 1HU       0.349000
     27 H15          0.1470     3.1250     0.2370 h4         1 1HU       0.210000
@<TRIPOS>BOND
     1     1     2 1   
     2     1    14 1   
     3     1    15 1   
     4     1    16 1   
     5     2     3 1   
     6     2    17 1   
     7     3     4 1   
     8     3    18 1   
     9     3    19 1   
    10     4     5 1   
    11     4    20 1   
    12     4    21 1   
    13     5     6 1   
    14     5    13 2   
    15     6     7 ar  
    16     6    11 ar  
    17     7     8 ar  
    18     7    22 1   
    19     8     9 ar  
    20     8    23 1   
    21     9    10 ar  
    22     9    24 1   
    23    10    11 ar  
    24    10    25 1   
    25    11    12 1   
    26    12    13 1   
    27    12    26 1   
    28    13    27 1   
@<TRIPOS>SUBSTRUCTURE
     1 1HU         1 TEMP              0 ****  ****    0 ROOT
