@<TRIPOS>MOLECULE
1HV
   57    60     1     0     0
SMALL
bcc


@<TRIPOS>ATOM
      1 C11         -0.3270    -3.9750    -0.3390 ca         1 1HV      -0.057000
      2 C12         -3.0910    -3.3250    -0.4830 ca         1 1HV      -0.141000
      3 C13          1.8180     0.1400    -0.1420 ca         1 1HV      -0.117500
      4 C14          4.0110    -0.4820     0.6500 ca         1 1HV      -0.143600
      5 C15          3.4910    -1.7040     1.0690 ca         1 1HV      -0.095500
      6 C16          3.1550     0.4400     0.0500 ca         1 1HV      -0.095500
      7 C17          2.1560    -2.0090     0.8700 ca         1 1HV      -0.117500
      8 C18         -4.4180    -0.4080    -0.9490 ca         1 1HV      -0.144000
      9 C19         -5.6340     1.4330     0.0320 ca         1 1HV      -0.155600
     10 C20         -4.5560     1.6660     0.8850 ca         1 1HV      -0.078000
     11 C21         -5.5520     0.3820    -0.8750 ca         1 1HV      -0.078000
     12 C22         -3.4280     0.8670     0.8400 ca         1 1HV      -0.144000
     13 C23          5.4570    -0.2010     0.9080 c          1 1HV       0.677700
     14 C26         -6.8940     2.2380     0.0700 c          1 1HV       0.677700
     15 C29          7.4310     1.0860     0.2340 c3         1 1HV       0.103000
     16 C30          7.7160     2.3130    -0.6160 c3         1 1HV      -0.099400
     17 N1           9.4080     3.9280    -1.3330 n8         1 1HV      -0.885800
     18 N2          -1.0100    -0.4350     0.0990 nc         1 1HV      -0.506100
     19 N3          -2.2110    -0.9830    -0.1200 na         1 1HV       0.169800
     20 C4          -0.1190    -1.3930     0.0690 cd         1 1HV       0.407500
     21 C5           1.3000    -1.0920     0.2600 ca         1 1HV      -0.074900
     22 C6          -3.3580    -0.1750    -0.0790 ca         1 1HV       0.051800
     23 C7          -2.1190    -2.3390    -0.2850 ca         1 1HV      -0.027200
     24 C8          -0.7550    -2.6510    -0.1800 ca         1 1HV      -0.210900
     25 C9          -1.2780    -4.9470    -0.5560 ca         1 1HV      -0.159000
     26 C10         -2.6460    -4.6220    -0.6120 ca         1 1HV      -0.092000
     27 N24          6.0410     0.6980     0.1040 ns         1 1HV      -0.569900
     28 O25          6.0590    -0.7700     1.8110 o          1 1HV      -0.604100
     29 O27         -7.9530     1.7680    -0.3280 o          1 1HV      -0.601100
     30 N28         -6.7970     3.4820     0.5560 ns         1 1HV      -0.569900
     31 C31          9.1650     2.7620    -0.4970 c3         1 1HV       0.152800
     32 C32         -7.9420     4.3560     0.6600 c3         1 1HV       0.094300
     33 H1           0.7220    -4.2340    -0.2980 ha         1 1HV       0.141000
     34 H2          -4.1460    -3.0980    -0.5300 ha         1 1HV       0.146000
     35 H3           1.1720     0.8690    -0.6120 ha         1 1HV       0.143500
     36 H4           4.1320    -2.4240     1.5590 ha         1 1HV       0.143000
     37 H5           3.5140     1.4130    -0.2620 ha         1 1HV       0.143000
     38 H6           1.7800    -2.9590     1.2250 ha         1 1HV       0.143500
     39 H7          -4.3580    -1.1840    -1.7000 ha         1 1HV       0.153500
     40 H8          -4.5930     2.4550     1.6260 ha         1 1HV       0.146500
     41 H9          -6.3720     0.1870    -1.5540 ha         1 1HV       0.146500
     42 H10         -2.6120     1.0460     1.5260 ha         1 1HV       0.153500
     43 H11          8.0870     0.2620    -0.0650 h1         1 1HV       0.052200
     44 H12          7.6460     1.2990     1.2830 h1         1 1HV       0.052200
     45 H13          7.4920     2.1020    -1.6660 hc         1 1HV       0.050700
     46 H14          7.0550     3.1290    -0.3060 hc         1 1HV       0.050700
     47 H15          8.8940     4.7170    -0.9610 hn         1 1HV       0.338800
     48 H16         10.3840     4.1870    -1.2710 hn         1 1HV       0.338800
     49 H18         -0.9740    -5.9780    -0.6810 ha         1 1HV       0.136000
     50 H19         -3.3690    -5.4120    -0.7660 ha         1 1HV       0.134000
     51 H20          5.5470     1.0240    -0.7110 hn         1 1HV       0.315500
     52 H21         -5.8930     3.8750     0.7540 hn         1 1HV       0.317500
     53 H22          9.4010     2.9250     0.5650 h1         1 1HV       0.031200
     54 H23          9.8190     1.9540    -0.8350 h1         1 1HV       0.031200
     55 H24         -8.7470     3.8870     1.2220 h1         1 1HV       0.041700
     56 H25         -7.6370     5.2560     1.1860 h1         1 1HV       0.041700
     57 H26         -8.3290     4.6430    -0.3200 h1         1 1HV       0.041700
@<TRIPOS>BOND
     1     1    24 ar  
     2     1    25 ar  
     3     1    33 1   
     4     2    23 ar  
     5     2    26 ar  
     6     2    34 1   
     7     3     6 ar  
     8     3    21 ar  
     9     3    35 1   
    10     4     5 ar  
    11     4     6 ar  
    12     4    13 1   
    13     5     7 ar  
    14     5    36 1   
    15     6    37 1   
    16     7    21 ar  
    17     7    38 1   
    18     8    11 ar  
    19     8    22 ar  
    20     8    39 1   
    21     9    10 ar  
    22     9    11 ar  
    23     9    14 1   
    24    10    12 ar  
    25    10    40 1   
    26    11    41 1   
    27    12    22 ar  
    28    12    42 1   
    29    13    27 1   
    30    13    28 2   
    31    14    29 2   
    32    14    30 1   
    33    15    16 1   
    34    15    27 1   
    35    15    43 1   
    36    15    44 1   
    37    16    31 1   
    38    16    45 1   
    39    16    46 1   
    40    17    31 1   
    41    17    47 1   
    42    17    48 1   
    43    18    19 1   
    44    18    20 2   
    45    19    22 1   
    46    19    23 1   
    47    20    21 1   
    48    20    24 1   
    49    23    24 ar  
    50    25    26 ar  
    51    25    49 1   
    52    26    50 1   
    53    27    51 1   
    54    30    32 1   
    55    30    52 1   
    56    31    53 1   
    57    31    54 1   
    58    32    55 1   
    59    32    56 1   
    60    32    57 1   
@<TRIPOS>SUBSTRUCTURE
     1 1HV         1 TEMP              0 ****  ****    0 ROOT
