@<TRIPOS>MOLECULE
1HV
   57    60     1     0     0
SMALL
No Charge or Current Charge


@<TRIPOS>ATOM
      1 C11         -0.3670    -3.8250    -0.1330 ca         1 1HV      -0.039000
      2 C12         -3.1330    -3.1500    -0.1360 ca         1 1HV      -0.123000
      3 C13          1.9670     0.0930    -0.3110 ca         1 1HV      -0.099500
      4 C14          4.1630    -0.6360     0.4980 ca         1 1HV      -0.143600
      5 C15          3.5380    -1.7610     1.0800 ca         1 1HV      -0.077500
      6 C16          3.3530     0.2950    -0.1960 ca         1 1HV      -0.077500
      7 C17          2.1520    -1.9600     0.9620 ca         1 1HV      -0.099500
      8 C18         -4.1690    -0.0890    -1.1650 ca         1 1HV      -0.126000
      9 C19         -5.7360     1.5360    -0.2050 ca         1 1HV      -0.155600
     10 C20         -4.9260     1.5890     0.9570 ca         1 1HV      -0.060000
     11 C21         -5.3380     0.6860    -1.2630 ca         1 1HV      -0.060000
     12 C22         -3.7580     0.8120     1.0500 ca         1 1HV      -0.126000
     13 C23          5.6620    -0.4550     0.6460 c          1 1HV       0.610700
     14 C26         -7.0030     2.3560    -0.3480 c          1 1HV       0.610700
     15 C29          7.6390     0.9950     0.0950 c3         1 1HV       0.103000
     16 C30          7.9340     2.3170    -0.6390 c3         1 1HV      -0.099400
     17 N1           9.6860     3.9490    -1.3220 n8         1 1HV      -0.996200
     18 N2          -0.9650    -0.1900     0.1580 nc         1 1HV      -0.506100
     19 N3          -2.2160    -0.8040     0.0930 na         1 1HV       0.169800
     20 C4          -0.1110    -1.2280     0.1520 cd         1 1HV       0.407500
     21 C5           1.3530    -1.0510     0.2390 ca         1 1HV      -0.074900
     22 C6          -3.3740    -0.0320    -0.0070 ca         1 1HV       0.051800
     23 C7          -2.1300    -2.1790    -0.0020 ca         1 1HV      -0.027200
     24 C8          -0.8080    -2.5010     0.0250 ca         1 1HV      -0.210900
     25 C9          -1.3500    -4.8290    -0.2680 ca         1 1HV      -0.141000
     26 C10         -2.7270    -4.4960    -0.2620 ca         1 1HV      -0.074000
     27 N24          6.2150     0.6600     0.0550 ns         1 1HV      -0.502900
     28 O25          6.3590    -1.2540     1.2570 o          1 1HV      -0.604100
     29 O27         -7.7000     2.3080    -1.3530 o          1 1HV      -0.601100
     30 N28         -7.3440     3.1670     0.7120 ns         1 1HV      -0.502900
     31 C31          9.4300     2.6850    -0.6080 c3         1 1HV       0.152800
     32 C32         -8.5300     4.0260     0.7480 c3         1 1HV       0.094300
     33 H1           0.6900    -4.0790    -0.1640 ha         1 1HV       0.123000
     34 H2          -4.1860    -2.8780    -0.1490 ha         1 1HV       0.128000
     35 H3           1.3670     0.8270    -0.8450 ha         1 1HV       0.125500
     36 H4           4.1260    -2.4860     1.6390 ha         1 1HV       0.125000
     37 H5           3.7780     1.1860    -0.6510 ha         1 1HV       0.125000
     38 H6           1.7000    -2.8170     1.4540 ha         1 1HV       0.125500
     39 H7          -3.8810    -0.7340    -1.9910 ha         1 1HV       0.135500
     40 H8          -5.1850     2.2260     1.7980 ha         1 1HV       0.128500
     41 H9          -5.9360     0.6220    -2.1710 ha         1 1HV       0.128500
     42 H10         -3.1480     0.8640     1.9490 ha         1 1HV       0.135500
     43 H11          8.2080     0.1800    -0.3720 h1         1 1HV       0.052200
     44 H12          7.9540     1.0780     1.1440 h1         1 1HV       0.052200
     45 H13          7.6040     2.2300    -1.6810 hc         1 1HV       0.050700
     46 H14          7.3510     3.1220    -0.1760 hc         1 1HV       0.050700
     47 H15          9.2070     4.7140    -0.8310 hn         1 1HV       0.394000
     48 H16         10.6810     4.1910    -1.2290 hn         1 1HV       0.394000
     49 H18         -1.0470    -5.8670    -0.3850 ha         1 1HV       0.118000
     50 H19         -3.4750    -5.2790    -0.3700 ha         1 1HV       0.116000
     51 H20          5.5860     1.2800    -0.4370 hn         1 1HV       0.315500
     52 H21         -6.7270     3.1630     1.5140 hn         1 1HV       0.317500
     53 H22          9.7650     2.7930     0.4340 h1         1 1HV       0.031200
     54 H23         10.0180     1.8870    -1.0820 h1         1 1HV       0.031200
     55 H24         -9.4340     3.4120     0.6450 h1         1 1HV       0.041700
     56 H25         -8.5650     4.5650     1.7030 h1         1 1HV       0.041700
     57 H26         -8.4860     4.7520    -0.0750 h1         1 1HV       0.041700
@<TRIPOS>BOND
     1     1    24 ar  
     2     1    25 ar  
     3     1    33 1   
     4     2    23 ar  
     5     2    26 ar  
     6     2    34 1   
     7     3     6 ar  
     8     3    21 ar  
     9     3    35 1   
    10     4     5 ar  
    11     4     6 ar  
    12     4    13 1   
    13     5     7 ar  
    14     5    36 1   
    15     6    37 1   
    16     7    21 ar  
    17     7    38 1   
    18     8    11 ar  
    19     8    22 ar  
    20     8    39 1   
    21     9    10 ar  
    22     9    11 ar  
    23     9    14 1   
    24    10    12 ar  
    25    10    40 1   
    26    11    41 1   
    27    12    22 ar  
    28    12    42 1   
    29    13    27 1   
    30    13    28 2   
    31    14    29 2   
    32    14    30 1   
    33    15    16 1   
    34    15    27 1   
    35    15    43 1   
    36    15    44 1   
    37    16    31 1   
    38    16    45 1   
    39    16    46 1   
    40    17    31 1   
    41    17    47 1   
    42    17    48 1   
    43    18    19 1   
    44    18    20 2   
    45    19    22 1   
    46    19    23 1   
    47    20    21 1   
    48    20    24 1   
    49    23    24 ar  
    50    25    26 ar  
    51    25    49 1   
    52    26    50 1   
    53    27    51 1   
    54    30    32 1   
    55    30    52 1   
    56    31    53 1   
    57    31    54 1   
    58    32    55 1   
    59    32    56 1   
    60    32    57 1   
@<TRIPOS>SUBSTRUCTURE
     1 1HV         1 TEMP              0 ****  ****    0 ROOT
