@<TRIPOS>MOLECULE
1HW
   49    52     1     0     0
SMALL
bcc


@<TRIPOS>ATOM
      1 C1          -4.0660    -2.5210     0.8540 ca         1 1HW      -0.095000
      2 C2          -3.0840    -1.5780     1.1330 ca         1 1HW      -0.093300
      3 C3          -3.1340    -0.3660     0.4280 ca         1 1HW      -0.086900
      4 C4          -4.1290    -0.1240    -0.5140 ca         1 1HW      -0.128000
      5 C5          -5.1040    -1.0790    -0.7700 ca         1 1HW       0.135100
      6 C10         -2.0870     0.6100     0.6860 ce         1 1HW       0.389900
      7 C11         -0.0130     1.4400     1.4210 c5         1 1HW       0.146000
      8 C6          -5.0670    -2.2900    -0.0770 ca         1 1HW      -0.195000
      9 C7          -2.0170    -1.8540     2.1630 c6         1 1HW      -0.028100
     10 C9          -1.0970     0.4040     1.7930 c5         1 1HW      -0.146000
     11 F31          3.7800    -2.7470    -1.8250 f          1 1HW      -0.227633
     12 C28          4.6610    -2.2900    -0.9340 c3         1 1HW       0.853700
     13 F29          4.4170    -2.9240     0.2110 f          1 1HW      -0.227633
     14 F30          5.8750    -2.6110    -1.3460 f          1 1HW      -0.227633
     15 C17          3.4620    -0.3980    -0.2910 ca         1 1HW       0.046100
     16 C16          3.4090    -0.0800     1.0560 ca         1 1HW       0.155900
     17 F26          4.4590    -0.3540     1.8310 f          1 1HW      -0.118900
     18 C15          2.3000     0.5350     1.5980 ca         1 1HW      -0.157000
     19 C18          2.3880    -0.0890    -1.1070 ca         1 1HW      -0.093000
     20 C19          1.2670     0.5230    -0.5690 ca         1 1HW      -0.120000
     21 C14          1.2130     0.8350     0.7850 ca         1 1HW      -0.052300
     22 C8          -0.7330    -1.0660     1.9180 c6         1 1HW      -0.059400
     23 N12         -0.7650     2.2790     0.4880 n          1 1HW      -0.274800
     24 C20         -0.3220     3.4590    -0.0090 c          1 1HW       0.690100
     25 O23          0.7190     3.9510     0.3790 o          1 1HW      -0.542100
     26 C21         -1.2140     4.0970    -1.0540 c3         1 1HW       0.072400
     27 O22         -0.6230     5.3020    -1.4420 oh         1 1HW      -0.569800
     28 N13         -1.8950     1.6740     0.0100 n2         1 1HW      -0.430300
     29 O24         -6.0300    -0.7580    -1.6930 os         1 1HW      -0.316900
     30 C25         -7.0140    -1.7180    -2.0270 c3         1 1HW       0.124700
     31 H1          -4.0510    -3.4710     1.3740 ha         1 1HW       0.132000
     32 H2          -4.1470     0.8150    -1.0540 ha         1 1HW       0.160000
     33 H4           0.2820     2.0180     2.2960 h1         1 1HW       0.095700
     34 H5          -5.8040    -3.0630    -0.2530 ha         1 1HW       0.138000
     35 H6          -2.4050    -1.6030     3.1570 hc         1 1HW       0.054200
     36 H7          -1.7990    -2.9230     2.1850 hc         1 1HW       0.054200
     37 H8          -1.5720     0.7180     2.7310 hc         1 1HW       0.082700
     38 H9           2.2890     0.7790     2.6530 ha         1 1HW       0.157000
     39 H10          2.4310    -0.3090    -2.1650 ha         1 1HW       0.158000
     40 H11          0.4370     0.7510    -1.2250 ha         1 1HW       0.151000
     41 H12         -0.0290    -1.2240     2.7370 hc         1 1HW       0.057700
     42 H13         -0.2500    -1.4190     1.0050 hc         1 1HW       0.057700
     43 H14         -1.3310     3.3940    -1.8890 h1         1 1HW       0.049200
     44 H15         -2.2170     4.2340    -0.6290 h1         1 1HW       0.049200
     45 H16         -1.1820     5.6940    -2.1190 ho         1 1HW       0.408000
     46 H18         -7.6280    -1.2720    -2.8050 h1         1 1HW       0.042700
     47 H19         -6.5710    -2.6390    -2.4140 h1         1 1HW       0.042700
     48 H20         -7.6520    -1.9640    -1.1750 h1         1 1HW       0.042700
     49 O27          4.6180    -0.9540    -0.8060 os         1 1HW      -0.359900
@<TRIPOS>BOND
     1     1     2 ar  
     2     1     8 ar  
     3     1    31 1   
     4     2     3 ar  
     5     2     9 1   
     6     3     4 ar  
     7     3     6 1   
     8     4     5 ar  
     9     4    32 1   
    10     5     8 ar  
    11     5    29 1   
    12     6    10 1   
    13     6    28 2   
    14     7    10 1   
    15     7    21 1   
    16     7    23 1   
    17     7    33 1   
    18     8    34 1   
    19     9    22 1   
    20     9    35 1   
    21     9    36 1   
    22    10    22 1   
    23    10    37 1   
    24    11    12 1   
    25    12    13 1   
    26    12    14 1   
    27    12    49 1   
    28    15    16 ar  
    29    15    19 ar  
    30    15    49 1   
    31    16    17 1   
    32    16    18 ar  
    33    18    21 ar  
    34    18    38 1   
    35    19    20 ar  
    36    19    39 1   
    37    20    21 ar  
    38    20    40 1   
    39    22    41 1   
    40    22    42 1   
    41    23    24 1   
    42    23    28 1   
    43    24    25 2   
    44    24    26 1   
    45    26    27 1   
    46    26    43 1   
    47    26    44 1   
    48    27    45 1   
    49    29    30 1   
    50    30    46 1   
    51    30    47 1   
    52    30    48 1   
@<TRIPOS>SUBSTRUCTURE
     1 1HW         1 TEMP              0 ****  ****    0 ROOT
