@<TRIPOS>MOLECULE
1HW
   49    52     1     0     0
SMALL
No Charge or Current Charge


@<TRIPOS>ATOM
      1 C1          -4.1470    -2.5350     1.0200 ca         1 1HW      -0.077000
      2 C2          -3.1960    -1.5380     1.3080 ca         1 1HW      -0.093300
      3 C3          -3.1840    -0.3450     0.5480 ca         1 1HW      -0.086900
      4 C4          -4.1030    -0.1800    -0.5090 ca         1 1HW      -0.110000
      5 C5          -5.0470    -1.1780    -0.7980 ca         1 1HW       0.135100
      6 C10         -2.1590     0.6890     0.8610 ce         1 1HW       0.389900
      7 C11         -0.0350     1.5490     1.6120 c5         1 1HW       0.146000
      8 C6          -5.0700    -2.3590    -0.0260 ca         1 1HW      -0.177000
      9 C7          -2.1900    -1.7540     2.4570 c6         1 1HW      -0.028100
     10 C9          -1.1870     0.5450     2.0210 c5         1 1HW      -0.146000
     11 F31          4.4560    -1.1380    -2.7770 f          1 1HW      -0.106333
     12 C28          4.6320    -1.9820    -1.7340 c3         1 1HW       0.513000
     13 F29          3.7240    -2.9780    -1.8460 f          1 1HW      -0.106333
     14 F30          5.8520    -2.5440    -1.8860 f          1 1HW      -0.106333
     15 C17          3.4110    -0.6290    -0.0170 ca         1 1HW       0.046100
     16 C16          3.4580    -0.0120     1.2500 ca         1 1HW       0.191000
     17 F26          4.5840    -0.0840     1.9990 f          1 1HW      -0.154000
     18 C15          2.3480     0.6820     1.7570 ca         1 1HW      -0.139000
     19 C18          2.2180    -0.5340    -0.7700 ca         1 1HW      -0.075000
     20 C19          1.1090     0.1620    -0.2590 ca         1 1HW      -0.102000
     21 C14          1.1570     0.7800     1.0130 ca         1 1HW      -0.052300
     22 C8          -0.8720    -0.9530     2.2810 c6         1 1HW      -0.059400
     23 N12         -0.7100     2.2960     0.5320 n          1 1HW      -0.207800
     24 C20         -0.1400     3.4470    -0.0800 c          1 1HW       0.623100
     25 O23          0.9290     3.9070     0.3170 o          1 1HW      -0.542100
     26 C21         -0.9410     4.0900    -1.2590 c3         1 1HW       0.095600
     27 O22         -0.3220     5.2710    -1.8370 oh         1 1HW      -0.632000
     28 N13         -1.8860     1.7250     0.1450 n2         1 1HW      -0.430300
     29 O24         -5.9240    -0.9540    -1.8410 os         1 1HW      -0.340100
     30 C25         -6.9280    -1.9130    -2.2190 c3         1 1HW       0.147900
     31 H1          -4.1710    -3.4510     1.6070 ha         1 1HW       0.114000
     32 H2          -4.0910     0.7260    -1.1090 ha         1 1HW       0.142000
     33 H4           0.2680     2.2030     2.4420 h1         1 1HW       0.095700
     34 H5          -5.7890    -3.1490    -0.2230 ha         1 1HW       0.120000
     35 H6          -2.6670    -1.4670     3.4050 hc         1 1HW       0.054200
     36 H7          -1.9510    -2.8220     2.5490 hc         1 1HW       0.054200
     37 H8          -1.6760     0.9120     2.9300 hc         1 1HW       0.082700
     38 H9           2.4190     1.1440     2.7380 ha         1 1HW       0.139000
     39 H10          2.1260    -0.9920    -1.7510 ha         1 1HW       0.140000
     40 H11          0.2040     0.2100    -0.8610 ha         1 1HW       0.133000
     41 H12         -0.2350    -1.0630     3.1700 hc         1 1HW       0.057700
     42 H13         -0.3190    -1.3890     1.4380 hc         1 1HW       0.057700
     43 H14         -1.0680     3.3130    -2.0240 h1         1 1HW       0.049200
     44 H15         -1.9410     4.3330    -0.8740 h1         1 1HW       0.049200
     45 H16         -0.9100     5.5870    -2.5610 ho         1 1HW       0.447000
     46 H18         -7.5130    -1.5370    -3.0670 h1         1 1HW       0.042700
     47 H19         -6.4670    -2.8630    -2.5180 h1         1 1HW       0.042700
     48 H20         -7.6190    -2.1030    -1.3870 h1         1 1HW       0.042700
     49 O27          4.5400    -1.3030    -0.4650 os         1 1HW      -0.383100
@<TRIPOS>BOND
     1     1     2 ar  
     2     1     8 ar  
     3     1    31 1   
     4     2     3 ar  
     5     2     9 1   
     6     3     4 ar  
     7     3     6 1   
     8     4     5 ar  
     9     4    32 1   
    10     5     8 ar  
    11     5    29 1   
    12     6    10 1   
    13     6    28 2   
    14     7    10 1   
    15     7    21 1   
    16     7    23 1   
    17     7    33 1   
    18     8    34 1   
    19     9    22 1   
    20     9    35 1   
    21     9    36 1   
    22    10    22 1   
    23    10    37 1   
    24    11    12 1   
    25    12    13 1   
    26    12    14 1   
    27    12    49 1   
    28    15    16 ar  
    29    15    19 ar  
    30    15    49 1   
    31    16    17 1   
    32    16    18 ar  
    33    18    21 ar  
    34    18    38 1   
    35    19    20 ar  
    36    19    39 1   
    37    20    21 ar  
    38    20    40 1   
    39    22    41 1   
    40    22    42 1   
    41    23    24 1   
    42    23    28 1   
    43    24    25 2   
    44    24    26 1   
    45    26    27 1   
    46    26    43 1   
    47    26    44 1   
    48    27    45 1   
    49    29    30 1   
    50    30    46 1   
    51    30    47 1   
    52    30    48 1   
@<TRIPOS>SUBSTRUCTURE
     1 1HW         1 TEMP              0 ****  ****    0 ROOT
