@<TRIPOS>MOLECULE
1HX
   34    35     1     0     0
SMALL
No Charge or Current Charge


@<TRIPOS>ATOM
      1 C4          -2.5050     0.1760     0.1870 ca         1 1HX      -0.132300
      2 C6          -4.5710     0.3430    -1.1250 ca         1 1HX      -0.121000
      3 C1          -4.5820     1.7370    -0.9640 ca         1 1HX      -0.071000
      4 C3          -2.5380     1.5830     0.3460 ca         1 1HX       0.188000
      5 C2          -3.5630     2.3540    -0.2250 ca         1 1HX      -0.153000
      6 C5          -3.5480    -0.4350    -0.5570 ca         1 1HX       0.165000
      7 C7          -1.3820    -0.6600     0.8190 c3         1 1HX       0.172000
      8 Cl2         -3.6290    -2.1820    -0.7970 cl         1 1HX      -0.190000
      9 F20         -1.5770     2.2230     1.0510 f          1 1HX      -0.181000
     10 C10         -1.5380    -0.7590     2.3500 c3         1 1HX      -0.103100
     11 N8          -0.0660    -0.1390     0.4560 ns         1 1HX      -0.495900
     12 O11          1.1130    -2.0680     0.6780 o          1 1HX      -0.599100
     13 C12          2.3030    -0.0820     0.0680 cc         1 1HX      -0.219600
     14 C16          2.3180     1.2670    -0.2190 cd         1 1HX      -0.158000
     15 C15          3.6350     1.6620    -0.5120 cd         1 1HX      -0.122000
     16 C14          4.4530     0.5710    -0.4130 cc         1 1HX      -0.110000
     17 C18          5.8610     0.5390    -0.6300 cg         1 1HX       0.345000
     18 N19          7.0140     0.4850    -0.8030 n1         1 1HX      -0.446000
     19 N13          3.6360    -0.5110    -0.0540 na         1 1HX       0.093000
     20 C17          4.0970    -1.8950     0.1650 c3         1 1HX       0.052900
     21 H1          -5.3630    -0.1400    -1.6920 ha         1 1HX       0.136000
     22 H2          -5.3780     2.3330    -1.4060 ha         1 1HX       0.124000
     23 H3          -3.5650     3.4330    -0.0910 ha         1 1HX       0.136000
     24 H4          -1.4280    -1.6840     0.4290 h1         1 1HX       0.084700
     25 H5          -2.5200    -1.1740     2.6060 hc         1 1HX       0.049700
     26 H6          -0.7710    -1.4170     2.7760 hc         1 1HX       0.049700
     27 H7          -1.4460     0.2250     2.8230 hc         1 1HX       0.049700
     28 H8           0.0170     0.8460     0.2460 hn         1 1HX       0.328500
     29 H9           1.4640     1.9390    -0.2240 ha         1 1HX       0.141000
     30 H10          3.9510     2.6680    -0.7750 ha         1 1HX       0.146000
     31 H11          3.5850    -2.5640    -0.5370 h1         1 1HX       0.067367
     32 H12          5.1790    -1.9780     0.0110 h1         1 1HX       0.067367
     33 H13          3.8600    -2.1990     1.1920 h1         1 1HX       0.067367
     34 C9           1.0960    -0.8710     0.4280 c          1 1HX       0.636700
@<TRIPOS>BOND
     1     1     4 ar  
     2     1     6 ar  
     3     1     7 1   
     4     2     3 ar  
     5     2     6 ar  
     6     2    21 1   
     7     3     5 ar  
     8     3    22 1   
     9     4     5 ar  
    10     4     9 1   
    11     5    23 1   
    12     6     8 1   
    13     7    10 1   
    14     7    11 1   
    15     7    24 1   
    16    10    25 1   
    17    10    26 1   
    18    10    27 1   
    19    11    28 1   
    20    11    34 1   
    21    12    34 2   
    22    13    14 2   
    23    13    19 1   
    24    13    34 1   
    25    14    15 1   
    26    14    29 1   
    27    15    16 2   
    28    15    30 1   
    29    16    17 1   
    30    16    19 1   
    31    17    18 3   
    32    19    20 1   
    33    20    31 1   
    34    20    32 1   
    35    20    33 1   
@<TRIPOS>SUBSTRUCTURE
     1 1HX         1 TEMP              0 ****  ****    0 ROOT
