@<TRIPOS>MOLECULE
1HX
   34    35     1     0     0
SMALL
bcc


@<TRIPOS>ATOM
      1 C4          -2.2220     0.0210     0.4030 ca         1 1HX      -0.132300
      2 C6          -3.8960    -0.2630    -1.3490 ca         1 1HX      -0.139000
      3 C1          -3.8600     1.0950    -1.6220 ca         1 1HX      -0.089000
      4 C3          -2.2430     1.3780     0.0950 ca         1 1HX       0.152900
      5 C2          -3.0290     1.9310    -0.8940 ca         1 1HX      -0.171000
      6 C5          -3.0830    -0.7760    -0.3490 ca         1 1HX       0.073400
      7 C7          -1.3220    -0.5250     1.4940 c3         1 1HX       0.172000
      8 CL2         -3.1800    -2.4820    -0.0430 cl         1 1HX      -0.098400
      9 F20         -1.4550     2.2030     0.8020 f          1 1HX      -0.145900
     10 C10         -1.8230    -0.1690     2.8880 c3         1 1HX      -0.103100
     11 N8           0.0450    -0.0760     1.3270 ns         1 1HX      -0.562900
     12 O11          0.4400    -1.3330    -0.5050 o          1 1HX      -0.599100
     13 C12          2.1120     0.1970     0.1960 cc         1 1HX      -0.168900
     14 C16          2.4330     1.4920     0.5730 cd         1 1HX      -0.176000
     15 C15          3.7610     1.7180     0.2050 cd         1 1HX      -0.140000
     16 C14          4.2080     0.5480    -0.3810 cc         1 1HX      -0.059300
     17 C18          5.4900     0.2760    -0.9000 cg         1 1HX       0.255800
     18 N19          6.5470     0.0780    -1.3190 n1         1 1HX      -0.356800
     19 N13          3.1980    -0.3710    -0.3860 na         1 1HX       0.020900
     20 C17          3.3100    -1.7230    -0.9080 c3         1 1HX       0.023600
     21 H1          -4.5470    -0.9180    -1.9100 ha         1 1HX       0.154000
     22 H2          -4.4860     1.5030    -2.4040 ha         1 1HX       0.142000
     23 H3          -2.9900     2.9950    -1.0870 ha         1 1HX       0.154000
     24 H4          -1.3200    -1.6110     1.4110 h1         1 1HX       0.084700
     25 H5          -2.8380    -0.5380     3.0220 hc         1 1HX       0.049700
     26 H6          -1.1920    -0.6370     3.6420 hc         1 1HX       0.049700
     27 H7          -1.8280     0.9070     3.0620 hc         1 1HX       0.049700
     28 H8           0.4190     0.5850     1.9890 hn         1 1HX       0.328500
     29 H9           1.7670     2.2050     1.0320 ha         1 1HX       0.159000
     30 H10          4.3410     2.6170     0.3380 ha         1 1HX       0.164000
     31 H11          2.7820    -1.8200    -1.8520 h1         1 1HX       0.067367
     32 H12          4.3600    -1.9540    -1.0640 h1         1 1HX       0.067367
     33 H13          2.9090    -2.4370    -0.1950 h1         1 1HX       0.067367
     34 C9           0.8040    -0.4860     0.2980 c          1 1HX       0.703700
@<TRIPOS>BOND
     1     1     4 ar  
     2     1     6 ar  
     3     1     7 1   
     4     2     3 ar  
     5     2     6 ar  
     6     2    21 1   
     7     3     5 ar  
     8     3    22 1   
     9     4     5 ar  
    10     4     9 1   
    11     5    23 1   
    12     6     8 1   
    13     7    10 1   
    14     7    11 1   
    15     7    24 1   
    16    10    25 1   
    17    10    26 1   
    18    10    27 1   
    19    11    28 1   
    20    11    34 1   
    21    12    34 2   
    22    13    14 2   
    23    13    19 1   
    24    13    34 1   
    25    14    15 1   
    26    14    29 1   
    27    15    16 2   
    28    15    30 1   
    29    16    17 1   
    30    16    19 1   
    31    17    18 3   
    32    19    20 1   
    33    20    31 1   
    34    20    32 1   
    35    20    33 1   
@<TRIPOS>SUBSTRUCTURE
     1 1HX         1 TEMP              0 ****  ****    0 ROOT
