@<TRIPOS>MOLECULE
1HZ
   54    57     1     0     0
SMALL
bcc


@<TRIPOS>ATOM
      1 O1P          2.9550    -3.2250     0.7180 o          1 1HZ      -0.595300
      2 S            2.3060    -2.0770     1.3330 s6         1 1HZ       1.216900
      3 O2P          2.5030    -1.8190     2.7510 o          1 1HZ      -0.595300
      4 C22          2.7960    -0.6140     0.4220 c3         1 1HZ      -0.238600
      5 C21          4.3010    -0.3710     0.5280 c3         1 1HZ       0.005900
      6 C19          4.6910     0.8400    -0.2760 ca         1 1HZ      -0.105300
      7 C18          5.2450     0.6920    -1.5460 ca         1 1HZ      -0.138000
      8 C17          5.5570     1.8020    -2.3140 ca         1 1HZ      -0.111000
      9 C16          5.3250     3.0800    -1.8240 ca         1 1HZ      -0.145000
     10 C15          4.7850     3.2470    -0.5560 ca         1 1HZ       0.130100
     11 O15          4.5750     4.4940    -0.0900 oh         1 1HZ      -0.492100
     12 C14          4.4650     2.1220     0.2130 ca         1 1HZ       0.033100
     13 O14          3.8960     2.3720     1.4260 oh         1 1HZ      -0.528100
     14 N5           0.6860    -2.2570     1.1080 n7         1 1HZ      -0.813100
     15 C5           0.1750    -2.5990    -0.2120 c3         1 1HZ       0.185800
     16 C4          -1.2710    -3.0540    -0.0880 c5         1 1HZ       0.141100
     17 O4          -2.0510    -2.0440     0.5610 os         1 1HZ      -0.404600
     18 C1          -2.9370    -1.4430    -0.3460 c5         1 1HZ       0.262800
     19 C2          -2.4640    -1.8690    -1.7360 c5         1 1HZ       0.060100
     20 O2          -3.5310    -1.8190    -2.6320 oh         1 1HZ      -0.566800
     21 C3          -1.9210    -3.2710    -1.4460 c5         1 1HZ       0.089100
     22 O3          -2.9660    -4.1940    -1.2960 oh         1 1HZ      -0.575800
     23 N9          -2.9480    -0.0190    -0.1390 na         1 1HZ      -0.262000
     24 C8          -1.8820     0.8400    -0.1790 cc         1 1HZ       0.396700
     25 N7          -2.2000     2.0720     0.0790 nd         1 1HZ      -0.543100
     26 C7          -3.5530     2.0340     0.3060 ca         1 1HZ      -0.236200
     27 C6          -4.4970     3.0250     0.6330 ca         1 1HZ       0.784200
     28 N6          -4.1730     4.3090     0.7860 nv         1 1HZ      -0.953500
     29 N1          -5.7690     2.6460     0.7970 nb         1 1HZ      -0.827000
     30 C10         -6.0890     1.3640     0.6480 ca         1 1HZ       0.714900
     31 N3          -5.2970     0.3500     0.3420 nb         1 1HZ      -0.744000
     32 C9          -4.0370     0.7420     0.1810 ca         1 1HZ       0.476800
     33 H1           2.5030    -0.7660    -0.6180 h1         1 1HZ       0.095700
     34 H2           2.2190     0.2180     0.8280 h1         1 1HZ       0.095700
     35 H3           4.5900    -0.2690     1.5770 hc         1 1HZ       0.063200
     36 H4           4.8390    -1.2390     0.1470 hc         1 1HZ       0.063200
     37 H5           5.4280    -0.3040    -1.9300 ha         1 1HZ       0.135000
     38 H6           5.9860     1.6770    -3.2990 ha         1 1HZ       0.137000
     39 H7           5.5700     3.9540    -2.4150 ha         1 1HZ       0.151000
     40 H8           4.2460     4.4540     0.8170 ho         1 1HZ       0.444000
     41 H9           4.2080     1.7510     2.0940 ho         1 1HZ       0.435000
     42 H10          0.1440    -1.5590     1.6070 hn         1 1HZ       0.445800
     43 H11          0.2590    -1.7650    -0.9200 h1         1 1HZ       0.054200
     44 H12          0.7590    -3.4260    -0.6130 h1         1 1HZ       0.054200
     45 H13         -1.3040    -3.9600     0.5230 h1         1 1HZ       0.117700
     46 H14         -3.9640    -1.7810    -0.1790 h2         1 1HZ       0.129700
     47 H15         -1.6330    -1.2290    -2.0630 h1         1 1HZ       0.048700
     48 H16         -3.1850    -1.7960    -3.5300 ho         1 1HZ       0.418000
     49 H17         -1.1930    -3.5940    -2.2010 h1         1 1HZ       0.057700
     50 H18         -3.5640    -4.0950    -2.0460 ho         1 1HZ       0.426000
     51 H19         -0.8810     0.5020    -0.4040 h5         1 1HZ       0.053800
     52 H20         -3.2290     4.6290     0.6560 hn         1 1HZ       0.453300
     53 H21         -4.8810     4.9870     1.0110 hn         1 1HZ       0.453300
     54 H22         -7.1360     1.1240     0.7960 h5         1 1HZ       0.049100
@<TRIPOS>BOND
     1     1     2 2   
     2     2     3 2   
     3     2     4 1   
     4     2    14 1   
     5     4     5 1   
     6     4    33 1   
     7     4    34 1   
     8     5     6 1   
     9     5    35 1   
    10     5    36 1   
    11     6     7 ar  
    12     6    12 ar  
    13     7     8 ar  
    14     7    37 1   
    15     8     9 ar  
    16     8    38 1   
    17     9    10 ar  
    18     9    39 1   
    19    10    11 1   
    20    10    12 ar  
    21    11    40 1   
    22    12    13 1   
    23    13    41 1   
    24    14    15 1   
    25    14    42 1   
    26    15    16 1   
    27    15    43 1   
    28    15    44 1   
    29    16    17 1   
    30    16    21 1   
    31    16    45 1   
    32    17    18 1   
    33    18    19 1   
    34    18    23 1   
    35    18    46 1   
    36    19    20 1   
    37    19    21 1   
    38    19    47 1   
    39    20    48 1   
    40    21    22 1   
    41    21    49 1   
    42    22    50 1   
    43    23    24 1   
    44    23    32 1   
    45    24    25 2   
    46    24    51 1   
    47    25    26 1   
    48    26    27 ar  
    49    26    32 ar  
    50    27    28 1   
    51    27    29 ar  
    52    28    52 1   
    53    28    53 1   
    54    29    30 ar  
    55    30    31 ar  
    56    30    54 1   
    57    31    32 ar  
@<TRIPOS>SUBSTRUCTURE
     1 1HZ         1 TEMP              0 ****  ****    0 ROOT
