@<TRIPOS>MOLECULE
1HZ
   54    57     1     0     0
SMALL
No Charge or Current Charge


@<TRIPOS>ATOM
      1 O1P          3.1240    -3.2480     0.6390 o          1 1HZ      -0.524500
      2 S            2.2700    -2.3720     1.4440 s6         1 1HZ       1.186100
      3 O2P          2.5390    -2.1800     2.8690 o          1 1HZ      -0.524500
      4 C22          2.0950    -0.7800     0.6300 c3         1 1HZ      -0.349400
      5 C21          3.4000     0.0460     0.6160 c3         1 1HZ       0.005900
      6 C19          3.1820     1.3830    -0.0900 ca         1 1HZ      -0.105300
      7 C18          3.4540     1.4750    -1.4720 ca         1 1HZ      -0.120000
      8 C17          3.2440     2.6780    -2.1680 ca         1 1HZ      -0.093000
      9 C16          2.7530     3.8050    -1.4900 ca         1 1HZ      -0.127000
     10 C15          2.4760     3.7240    -0.1180 ca         1 1HZ       0.130100
     11 O15          1.9960     4.8100     0.5510 oh         1 1HZ      -0.531100
     12 C14          2.6860     2.5220     0.5880 ca         1 1HZ       0.033100
     13 O14          2.3950     2.4830     1.9300 oh         1 1HZ      -0.567100
     14 N5           0.7290    -2.9890     1.3450 n7         1 1HZ      -0.868300
     15 C5           0.2060    -3.4070     0.0270 c3         1 1HZ       0.185800
     16 C4          -1.3430    -3.5400     0.0610 c5         1 1HZ       0.164300
     17 O4          -1.9160    -2.2660     0.4610 os         1 1HZ      -0.451000
     18 C1          -2.3630    -1.5440    -0.7140 c5         1 1HZ       0.315300
     19 C2          -2.0110    -2.4440    -1.9600 c5         1 1HZ       0.083300
     20 O2          -2.9730    -2.3720    -3.0320 oh         1 1HZ      -0.689000
     21 C3          -2.0080    -3.8590    -1.3160 c5         1 1HZ       0.112300
     22 O3          -3.3510    -4.3440    -1.1990 oh         1 1HZ      -0.698000
     23 N9          -1.8350    -0.1780    -0.6720 na         1 1HZ      -0.291300
     24 C8          -0.7080     0.3070    -1.3460 cc         1 1HZ       0.396700
     25 N7          -0.5350     1.6240    -1.1360 nd         1 1HZ      -0.543100
     26 C7          -1.5970     1.9560    -0.2910 ca         1 1HZ      -0.105600
     27 C6          -1.9410     3.2020     0.2720 ca         1 1HZ       0.455900
     28 N6          -1.2220     4.3340     0.0530 nv         1 1HZ      -1.063900
     29 N1          -3.0120     3.3310     1.0720 nb         1 1HZ      -0.301000
     30 C10         -3.7280     2.2020     1.2940 ca         1 1HZ       0.188900
     31 N3          -3.4720     0.9680     0.7950 nb         1 1HZ      -0.218000
     32 C9          -2.3890     0.8750    -0.0010 ca         1 1HZ       0.148500
     33 H1           1.7820    -0.9830    -0.3990 h1         1 1HZ       0.095700
     34 H2           1.3010    -0.2370     1.1540 h1         1 1HZ       0.095700
     35 H3           3.7690     0.1950     1.6390 hc         1 1HZ       0.063200
     36 H4           4.1840    -0.5250     0.1010 hc         1 1HZ       0.063200
     37 H5           3.8270     0.6070    -2.0120 ha         1 1HZ       0.117000
     38 H6           3.4570     2.7340    -3.2340 ha         1 1HZ       0.119000
     39 H7           2.5870     4.7360    -2.0260 ha         1 1HZ       0.133000
     40 H8           1.9310     4.5260     1.4910 ho         1 1HZ       0.483000
     41 H9           2.5340     1.5680     2.2550 ho         1 1HZ       0.474000
     42 H10          0.1830    -2.1800     1.6450 hn         1 1HZ       0.501000
     43 H11          0.4740    -2.6800    -0.7500 h1         1 1HZ       0.054200
     44 H12          0.6410    -4.3710    -0.2690 h1         1 1HZ       0.054200
     45 H13         -1.5980    -4.3040     0.8080 h1         1 1HZ       0.117700
     46 H14         -3.4550    -1.4420    -0.6580 h2         1 1HZ       0.129700
     47 H15         -1.0080    -2.2180    -2.3450 h1         1 1HZ       0.048700
     48 H16         -2.7800    -1.5610    -3.5620 ho         1 1HZ       0.517000
     49 H17         -1.4000    -4.5620    -1.9020 h1         1 1HZ       0.057700
     50 H18         -3.8150    -3.9230    -1.9670 ho         1 1HZ       0.525000
     51 H19         -0.0710    -0.3200    -1.9580 h5         1 1HZ       0.053800
     52 H20         -0.2750     4.2020    -0.2950 hn         1 1HZ       0.508500
     53 H21         -1.3580     5.1120     0.6910 hn         1 1HZ       0.508500
     54 H22         -4.5990     2.2950     1.9410 h5         1 1HZ       0.049100
@<TRIPOS>BOND
     1     1     2 2   
     2     2     3 2   
     3     2     4 1   
     4     2    14 1   
     5     4     5 1   
     6     4    33 1   
     7     4    34 1   
     8     5     6 1   
     9     5    35 1   
    10     5    36 1   
    11     6     7 ar  
    12     6    12 ar  
    13     7     8 ar  
    14     7    37 1   
    15     8     9 ar  
    16     8    38 1   
    17     9    10 ar  
    18     9    39 1   
    19    10    11 1   
    20    10    12 ar  
    21    11    40 1   
    22    12    13 1   
    23    13    41 1   
    24    14    15 1   
    25    14    42 1   
    26    15    16 1   
    27    15    43 1   
    28    15    44 1   
    29    16    17 1   
    30    16    21 1   
    31    16    45 1   
    32    17    18 1   
    33    18    19 1   
    34    18    23 1   
    35    18    46 1   
    36    19    20 1   
    37    19    21 1   
    38    19    47 1   
    39    20    48 1   
    40    21    22 1   
    41    21    49 1   
    42    22    50 1   
    43    23    24 1   
    44    23    32 1   
    45    24    25 2   
    46    24    51 1   
    47    25    26 1   
    48    26    27 ar  
    49    26    32 ar  
    50    27    28 1   
    51    27    29 ar  
    52    28    52 1   
    53    28    53 1   
    54    29    30 ar  
    55    30    31 ar  
    56    30    54 1   
    57    31    32 ar  
@<TRIPOS>SUBSTRUCTURE
     1 1HZ         1 TEMP              0 ****  ****    0 ROOT
