@<TRIPOS>MOLECULE
1I1
   37    38     1     0     0
SMALL
No Charge or Current Charge


@<TRIPOS>ATOM
      1 C02         -6.1330   -50.0780   131.3510 ca         1 1I1       0.435900
      2 C04         -4.5820   -51.5430   130.5210 ca         1 1I1       0.146900
      3 C06         -4.1820   -49.3120   130.2060 ca         1 1I1       0.101500
      4 C07         -5.3510   -49.0080   130.8640 ca         1 1I1      -0.077600
      5 C09         -4.5110   -47.0940   130.3130 cc         1 1I1       0.468700
      6 C12         -2.5300   -47.3290   127.7190 c3         1 1I1       0.189800
      7 C14         -2.1840   -44.8580   128.3550 c3         1 1I1       0.132500
      8 C15         -0.7440   -44.7780   127.7500 c3         1 1I1       0.110600
      9 C17         -2.8680   -43.4320   128.3420 c          1 1I1       0.599100
     10 N01         -7.3040   -49.8940   132.0200 nv         1 1I1      -1.082900
     11 N03         -5.7490   -51.3540   131.1830 nb         1 1I1      -0.329000
     12 N05         -3.7700   -50.5820   130.0180 nb         1 1I1      -0.210000
     13 N08         -5.5780   -47.6260   130.9480 nd         1 1I1      -0.587100
     14 N10         -3.6520   -48.1000   129.8630 na         1 1I1      -0.246300
     15 N13         -3.0470   -45.9380   127.7450 n7         1 1I1      -0.945400
     16 N18         -3.2400   -42.8520   127.1650 ns         1 1I1      -0.471900
     17 O16          0.1600   -45.7090   128.3830 oh         1 1I1      -0.700000
     18 O20         -4.0010   -42.3390   124.8230 o          1 1I1      -0.897833
     19 O21         -1.6420   -42.9130   125.2300 o          1 1I1      -0.897833
     20 O22         -3.3480   -44.6740   125.3770 o          1 1I1      -0.897833
     21 O23         -3.1240   -42.8310   129.3840 o          1 1I1      -0.781100
     22 P19         -3.0580   -43.2270   125.5520 p5         1 1I1       1.235900
     23 H1          -4.2630   -52.5740   130.3780 h5         1 1I1       0.020100
     24 H2          -4.3080   -46.0400   130.1620 h5         1 1I1       0.103800
     25 H3          -1.9060   -48.9350   129.0260 h1         1 1I1       0.046200
     26 H4          -1.6990   -47.3340   129.7370 h1         1 1I1       0.046200
     27 H5          -3.2200   -47.9630   127.1470 h1         1 1I1       0.032200
     28 H6          -1.5630   -47.3740   127.2010 h1         1 1I1       0.032200
     29 H7          -2.0570   -45.0900   129.4210 h1         1 1I1       0.022700
     30 H8          -0.3670   -43.7550   127.8890 h1         1 1I1       0.059700
     31 H9          -0.7900   -44.9610   126.6680 h1         1 1I1       0.059700
     32 H10         -7.6560   -50.6630   132.5840 hn         1 1I1       0.493500
     33 H11         -7.5050   -48.9530   132.3480 hn         1 1I1       0.493500
     34 H12         -3.2050   -45.6310   126.7500 hn         1 1I1       0.548000
     35 H14         -3.6880   -41.9570   127.2340 hn         1 1I1       0.260500
     36 H15          1.0340   -45.6100   127.9430 ho         1 1I1       0.417000
     37 C11         -2.3760   -47.9490   129.1330 c3         1 1I1       0.067600
@<TRIPOS>BOND
     1     1     4 ar  
     2     1    10 1   
     3     1    11 ar  
     4     2    11 ar  
     5     2    12 ar  
     6     2    23 1   
     7     3     4 ar  
     8     3    12 ar  
     9     3    14 1   
    10     4    13 1   
    11     5    13 2   
    12     5    14 1   
    13     5    24 1   
    14     6    15 1   
    15     6    27 1   
    16     6    28 1   
    17     6    37 1   
    18     7     8 1   
    19     7     9 1   
    20     7    15 1   
    21     7    29 1   
    22     8    17 1   
    23     8    30 1   
    24     8    31 1   
    25     9    16 1   
    26     9    21 2   
    27    10    32 1   
    28    10    33 1   
    29    14    37 1   
    30    15    34 1   
    31    16    22 1   
    32    16    35 1   
    33    17    36 1   
    34    18    22 1   
    35    19    22 1   
    36    20    22 1   
    37    25    37 1   
    38    26    37 1   
@<TRIPOS>SUBSTRUCTURE
     1 1I1         1 TEMP              0 ****  ****    0 ROOT
