@<TRIPOS>MOLECULE
1I1
   37    38     1     0     0
SMALL
bcc


@<TRIPOS>ATOM
      1 C02         -6.3800   -49.5070   130.6910 ca         1 1I1       0.764200
      2 C04         -4.8850   -51.0700   129.9070 ca         1 1I1       0.672900
      3 C06         -4.1000   -49.0430   130.2290 ca         1 1I1       0.429800
      4 C07         -5.3310   -48.5710   130.6640 ca         1 1I1      -0.208200
      5 C09         -4.0130   -46.9270   130.7340 cc         1 1I1       0.468700
      6 C12         -1.8630   -47.5470   128.3160 c3         1 1I1       0.189800
      7 C14         -1.8190   -45.0700   128.3650 c3         1 1I1       0.132500
      8 C15         -0.7450   -44.6130   127.3740 c3         1 1I1       0.087400
      9 C17         -2.8520   -43.9710   128.6210 c          1 1I1       0.666100
     10 N01         -7.6200   -49.1900   131.0750 nv         1 1I1      -0.972500
     11 N03         -6.1170   -50.7600   130.3030 nb         1 1I1      -0.855000
     12 N05         -3.8230   -50.2870   129.8360 nb         1 1I1      -0.736000
     13 N08         -5.2550   -47.2390   130.9800 nd         1 1I1      -0.587100
     14 N10         -3.2600   -47.9750   130.2960 na         1 1I1      -0.217000
     15 N13         -2.5250   -46.2960   128.0570 n7         1 1I1      -0.890200
     16 N18         -3.6440   -43.5720   127.6190 ns         1 1I1      -0.538900
     17 O16          0.4030   -45.4260   127.5330 oh         1 1I1      -0.637800
     18 O20         -5.2930   -43.4150   125.6680 o          1 1I1      -0.897833
     19 O21         -2.7940   -43.0990   125.1390 o          1 1I1      -0.897833
     20 O22         -3.6950   -45.4320   125.7020 o          1 1I1      -0.897833
     21 O23         -2.9450   -43.4980   129.7600 o          1 1I1      -0.781100
     22 P19         -3.8700   -43.9180   125.8310 p5         1 1I1       1.235900
     23 H1          -4.7400   -52.1020   129.6040 h5         1 1I1       0.020100
     24 H2          -3.5830   -45.9440   130.8580 h5         1 1I1       0.103800
     25 H3          -1.4310   -48.8790   129.9660 h1         1 1I1       0.046200
     26 H4          -1.3590   -47.1810   130.3990 h1         1 1I1       0.046200
     27 H5          -2.3900   -48.3260   127.7590 h1         1 1I1       0.032200
     28 H6          -0.8160   -47.5960   127.9960 h1         1 1I1       0.032200
     29 H7          -1.3150   -45.1920   129.3290 h1         1 1I1       0.022700
     30 H8          -0.5030   -43.5590   127.5770 h1         1 1I1       0.059700
     31 H9          -1.1330   -44.6590   126.3550 h1         1 1I1       0.059700
     32 H10         -8.3340   -49.8960   131.1140 hn         1 1I1       0.438300
     33 H11         -7.8400   -48.2690   131.4090 hn         1 1I1       0.438300
     34 H12         -2.9410   -46.2210   127.1240 hn         1 1I1       0.492800
     35 H14         -4.2970   -42.8650   127.9360 hn         1 1I1       0.260500
     36 H15          1.0040   -45.2330   126.8080 ho         1 1I1       0.378000
     37 C11         -1.9030   -47.9120   129.7990 c3         1 1I1       0.038300
@<TRIPOS>BOND
     1     1     4 ar  
     2     1    10 1   
     3     1    11 ar  
     4     2    11 ar  
     5     2    12 ar  
     6     2    23 1   
     7     3     4 ar  
     8     3    12 ar  
     9     3    14 1   
    10     4    13 1   
    11     5    13 2   
    12     5    14 1   
    13     5    24 1   
    14     6    15 1   
    15     6    27 1   
    16     6    28 1   
    17     6    37 1   
    18     7     8 1   
    19     7     9 1   
    20     7    15 1   
    21     7    29 1   
    22     8    17 1   
    23     8    30 1   
    24     8    31 1   
    25     9    16 1   
    26     9    21 2   
    27    10    32 1   
    28    10    33 1   
    29    14    37 1   
    30    15    34 1   
    31    16    22 1   
    32    16    35 1   
    33    17    36 1   
    34    18    22 1   
    35    19    22 1   
    36    20    22 1   
    37    25    37 1   
    38    26    37 1   
@<TRIPOS>SUBSTRUCTURE
     1 1I1         1 TEMP              0 ****  ****    0 ROOT
