@<TRIPOS>MOLECULE
1I2
   68    73     1     0     0
SMALL
No Charge or Current Charge


@<TRIPOS>ATOM
      1 C02        107.8140   107.1650   116.2510 c          1 1I2       0.532600
      2 C03        108.3390   106.8770   114.8620 cc         1 1I2       0.198500
      3 C06        110.2650   105.2660   112.5210 ca         1 1I2      -0.061200
      4 C07        111.6520   105.4730   112.3800 ca         1 1I2       0.223000
      5 C09        112.4330   104.5810   111.6300 ca         1 1I2      -0.201000
      6 C10        111.8300   103.4710   111.0240 ca         1 1I2       0.213000
      7 C12        110.4520   103.2440   111.1680 ca         1 1I2      -0.165000
      8 C13        109.6680   104.1380   111.9200 ca         1 1I2      -0.045000
      9 C14        108.4850   106.8770   112.6150 cd         1 1I2      -0.108000
     10 C15        108.2040   106.9340   111.1550 ca         1 1I2      -0.029000
     11 C16        109.2570   106.9480   110.2110 ca         1 1I2      -0.081500
     12 C17        108.9890   106.9920   108.8310 ca         1 1I2      -0.106000
     13 C18        107.6640   107.0230   108.3740 ca         1 1I2       0.127000
     14 C20        106.6080   107.0090   109.2950 ca         1 1I2      -0.106000
     15 C21        106.8760   106.9670   110.6750 ca         1 1I2      -0.081500
     16 C22        107.7290   107.3590   113.6600 cc         1 1I2      -0.103300
     17 C23        106.5290   108.2800   113.6090 c3         1 1I2      -0.014800
     18 C25        108.3160   106.7060   118.6860 c3         1 1I2       0.064000
     19 C26        109.5340   106.2870   119.5470 c3         1 1I2       0.151800
     20 C28        108.8960   107.6280   121.6360 c6         1 1I2       0.184500
     21 C29        108.5570   107.4430   123.1520 c6         1 1I2      -0.056700
     22 C30        109.8300   107.0170   123.9490 c6         1 1I2      -0.065400
     23 C31        110.0180   108.7160   121.5040 c6         1 1I2      -0.056700
     24 C32        111.2890   108.2880   122.3010 c6         1 1I2      -0.065400
     25 C33        110.9300   108.1090   123.8060 c6         1 1I2      -0.058200
     26 C34        110.3940   109.4570   124.3720 c6         1 1I2      -0.069400
     27 C35        109.1240   109.8890   123.5830 c6         1 1I2      -0.058200
     28 C36        108.0290   108.7920   123.7250 c6         1 1I2      -0.065400
     29 C37        109.4880   110.0630   122.0790 c6         1 1I2      -0.065400
     30 F08        112.2460   106.5460   112.9510 f          1 1I2      -0.150000
     31 F11        112.5800   102.6120   110.3010 f          1 1I2      -0.163000
     32 N04        109.4010   106.1140   114.6400 nd         1 1I2      -0.493800
     33 N05        109.4940   106.1510   113.2720 na         1 1I2       0.244000
     34 N24        108.5810   106.5900   117.2470 ns         1 1I2      -0.493900
     35 N27        109.2410   106.3280   121.0020 n7         1 1I2      -0.871400
     36 O01        106.8180   107.8230   116.5300 o          1 1I2      -0.604100
     37 Cl1        107.3280   107.0760   106.6490 cl         1 1I2      -0.195000
     38 H1         113.4990   104.7510   111.5180 ha         1 1I2       0.157000
     39 H2         109.9950   102.3780   110.6970 ha         1 1I2       0.146000
     40 H3         108.6000   103.9590   112.0310 ha         1 1I2       0.139000
     41 H4         110.2920   106.9620   110.5360 ha         1 1I2       0.126500
     42 H5         109.8080   107.0100   108.1180 ha         1 1I2       0.134000
     43 H6         105.5800   107.0220   108.9410 ha         1 1I2       0.134000
     44 H7         106.0380   106.9130   111.3630 ha         1 1I2       0.126500
     45 H8         105.6000   107.7330   113.8100 hc         1 1I2       0.051700
     46 H9         106.6170   109.0910   114.3400 hc         1 1I2       0.051700
     47 H10        106.4360   108.7710   112.6340 hc         1 1I2       0.051700
     48 H11        108.0530   107.7480   118.9090 h1         1 1I2       0.050700
     49 H12        107.4550   106.0720   118.9340 h1         1 1I2       0.050700
     50 H13        109.8210   105.2660   119.2610 h1         1 1I2       0.053700
     51 H14        110.3850   106.9350   119.3000 h1         1 1I2       0.053700
     52 H15        107.9900   108.0070   121.1400 h1         1 1I2       0.021700
     53 H16        107.7790   106.6760   123.2650 hc         1 1I2       0.045700
     54 H17        109.5790   106.8710   125.0090 hc         1 1I2       0.042075
     55 H18        110.2060   106.0510   123.5890 hc         1 1I2       0.042075
     56 H19        110.2770   108.8680   120.4480 hc         1 1I2       0.045700
     57 H20        111.6990   107.3530   121.8950 hc         1 1I2       0.042075
     58 H21        112.0780   109.0440   122.1880 hc         1 1I2       0.042075
     59 H22        111.8260   107.8050   124.3650 hc         1 1I2       0.047200
     60 H23        110.1590   109.3520   125.4410 hc         1 1I2       0.037700
     61 H24        111.1680   110.2330   124.3000 hc         1 1I2       0.037700
     62 H25        108.7470   110.8400   123.9830 hc         1 1I2       0.047200
     63 H26        107.1160   109.0970   123.1960 hc         1 1I2       0.042075
     64 H27        107.7480   108.6710   124.7810 hc         1 1I2       0.042075
     65 H28        110.2460   110.8500   121.9620 hc         1 1I2       0.042075
     66 H29        108.6080   110.3960   121.5130 hc         1 1I2       0.042075
     67 H30        109.3830   106.0540   116.9300 hn         1 1I2       0.333500
     68 H31        108.4800   105.6660   121.1930 hn         1 1I2       0.415000
@<TRIPOS>BOND
     1     1     2 1   
     2     1    34 1   
     3     1    36 2   
     4     2    16 1   
     5     2    32 2   
     6     3     4 ar  
     7     3     8 ar  
     8     3    33 1   
     9     4     5 ar  
    10     4    30 1   
    11     5     6 ar  
    12     5    38 1   
    13     6     7 ar  
    14     6    31 1   
    15     7     8 ar  
    16     7    39 1   
    17     8    40 1   
    18     9    10 1   
    19     9    16 2   
    20     9    33 1   
    21    10    11 ar  
    22    10    15 ar  
    23    11    12 ar  
    24    11    41 1   
    25    12    13 ar  
    26    12    42 1   
    27    13    14 ar  
    28    13    37 1   
    29    14    15 ar  
    30    14    43 1   
    31    15    44 1   
    32    16    17 1   
    33    17    45 1   
    34    17    46 1   
    35    17    47 1   
    36    18    19 1   
    37    18    34 1   
    38    18    48 1   
    39    18    49 1   
    40    19    35 1   
    41    19    50 1   
    42    19    51 1   
    43    20    21 1   
    44    20    23 1   
    45    20    35 1   
    46    20    52 1   
    47    21    22 1   
    48    21    28 1   
    49    21    53 1   
    50    22    25 1   
    51    22    54 1   
    52    22    55 1   
    53    23    24 1   
    54    23    29 1   
    55    23    56 1   
    56    24    25 1   
    57    24    57 1   
    58    24    58 1   
    59    25    26 1   
    60    25    59 1   
    61    26    27 1   
    62    26    60 1   
    63    26    61 1   
    64    27    28 1   
    65    27    29 1   
    66    27    62 1   
    67    28    63 1   
    68    28    64 1   
    69    29    65 1   
    70    29    66 1   
    71    32    33 1   
    72    34    67 1   
    73    35    68 1   
@<TRIPOS>SUBSTRUCTURE
     1 1I2         1 TEMP              0 ****  ****    0 ROOT
