@<TRIPOS>MOLECULE
1I2
   68    73     1     0     0
SMALL
abcg2


@<TRIPOS>ATOM
      1 C02        107.5270   106.9900   116.3920 c          1 1I2       0.532600
      2 C03        107.9690   106.7460   114.9980 cc         1 1I2       0.198500
      3 C06        110.0820   105.1420   112.7930 ca         1 1I2      -0.061200
      4 C07        111.4330   105.3160   113.0580 ca         1 1I2       0.223000
      5 C09        112.4000   104.5620   112.4270 ca         1 1I2      -0.201000
      6 C10        111.9790   103.6250   111.5020 ca         1 1I2       0.213000
      7 C12        110.6450   103.4160   111.2080 ca         1 1I2      -0.165000
      8 C13        109.6980   104.1790   111.8700 ca         1 1I2      -0.045000
      9 C14        108.2020   106.7610   112.8140 cd         1 1I2      -0.108000
     10 C15        108.1670   106.9710   111.3650 ca         1 1I2      -0.029000
     11 C16        109.3010   107.4040   110.6770 ca         1 1I2      -0.081500
     12 C17        109.2680   107.5970   109.3070 ca         1 1I2      -0.106000
     13 C18        108.0880   107.3580   108.6190 ca         1 1I2       0.127000
     14 C20        106.9460   106.9360   109.2800 ca         1 1I2      -0.106000
     15 C21        106.9930   106.7430   110.6520 ca         1 1I2      -0.081500
     16 C22        107.4240   107.2980   113.8170 cc         1 1I2      -0.103300
     17 C23        106.3060   108.2700   113.6570 c3         1 1I2      -0.014800
     18 C25        108.0240   106.6090   118.7550 c3         1 1I2       0.064000
     19 C26        109.2200   106.1240   119.5740 c3         1 1I2       0.151800
     20 C28        108.7860   107.5430   121.5580 c6         1 1I2       0.184500
     21 C29        108.7470   107.4580   123.0910 c6         1 1I2      -0.056700
     22 C30        110.1240   107.0820   123.6430 c6         1 1I2      -0.065400
     23 C31        109.8310   108.5930   121.1520 c6         1 1I2      -0.056700
     24 C32        111.2090   108.2180   121.7000 c6         1 1I2      -0.065400
     25 C33        111.1480   108.1400   123.2280 c6         1 1I2      -0.058200
     26 C34        110.7260   109.5000   123.7900 c6         1 1I2      -0.069400
     27 C35        109.3460   109.8800   123.2460 c6         1 1I2      -0.058200
     28 C36        108.3260   108.8170   123.6550 c6         1 1I2      -0.065400
     29 C37        109.4070   109.9510   121.7200 c6         1 1I2      -0.065400
     30 F08        111.8100   106.2450   113.9340 f          1 1I2      -0.150000
     31 F11        112.9030   102.9000   110.8690 f          1 1I2      -0.163000
     32 N04        108.9840   105.9420   114.7390 nd         1 1I2      -0.493800
     33 N05        109.1200   105.9570   113.4230 na         1 1I2       0.244000
     34 N24        108.2970   106.4470   117.3440 ns         1 1I2      -0.493900
     35 N27        109.0800   106.2280   121.0080 n7         1 1I2      -0.871400
     36 O01        106.5250   107.6520   116.6300 o          1 1I2      -0.604100
     37 CL1        108.0410   107.5920   106.9050 cl         1 1I2      -0.195000
     38 H1         113.4500   104.7120   112.6410 ha         1 1I2       0.157000
     39 H2         110.3490   102.6690   110.4840 ha         1 1I2       0.146000
     40 H3         108.6470   104.0280   111.6640 ha         1 1I2       0.139000
     41 H4         110.2190   107.6080   111.2130 ha         1 1I2       0.126500
     42 H5         110.1530   107.9330   108.7840 ha         1 1I2       0.134000
     43 H6         106.0300   106.7510   108.7360 ha         1 1I2       0.134000
     44 H7         106.1070   106.3940   111.1670 ha         1 1I2       0.126500
     45 H8         105.3470   107.8260   113.9240 hc         1 1I2       0.051700
     46 H9         106.4450   109.1420   114.2940 hc         1 1I2       0.051700
     47 H10        106.2360   108.6140   112.6270 hc         1 1I2       0.051700
     48 H11        107.8230   107.6630   118.9620 h1         1 1I2       0.050700
     49 H12        107.1290   106.0490   119.0460 h1         1 1I2       0.050700
     50 H13        109.4090   105.0730   119.3360 h1         1 1I2       0.053700
     51 H14        110.1130   106.6690   119.2550 h1         1 1I2       0.053700
     52 H15        107.8010   107.9140   121.2250 h1         1 1I2       0.021700
     53 H16        108.0100   106.7000   123.3840 hc         1 1I2       0.045700
     54 H17        110.0760   107.0130   124.7350 hc         1 1I2       0.042075
     55 H18        110.4240   106.0980   123.2760 hc         1 1I2       0.042075
     56 H19        109.8750   108.6760   120.0610 hc         1 1I2       0.045700
     57 H20        111.5400   107.2630   121.2830 hc         1 1I2       0.042075
     58 H21        111.9430   108.9690   121.3920 hc         1 1I2       0.042075
     59 H22        112.1330   107.8730   123.6220 hc         1 1I2       0.047200
     60 H23        110.7020   109.4630   124.8840 hc         1 1I2       0.037700
     61 H24        111.4610   110.2660   123.5180 hc         1 1I2       0.037700
     62 H25        109.0470   110.8520   123.6490 hc         1 1I2       0.047200
     63 H26        107.3310   109.0860   123.2850 hc         1 1I2       0.042075
     64 H27        108.2520   108.7600   124.7460 hc         1 1I2       0.042075
     65 H28        110.1210   110.7180   121.4050 hc         1 1I2       0.042075
     66 H29        108.4330   110.2410   121.3140 hc         1 1I2       0.042075
     67 H30        109.0940   105.8970   117.0620 hn         1 1I2       0.333500
     68 H31        108.3770   105.5730   121.3290 hn         1 1I2       0.415000
@<TRIPOS>BOND
     1     1     2 1   
     2     1    34 1   
     3     1    36 2   
     4     2    16 1   
     5     2    32 2   
     6     3     4 ar  
     7     3     8 ar  
     8     3    33 1   
     9     4     5 ar  
    10     4    30 1   
    11     5     6 ar  
    12     5    38 1   
    13     6     7 ar  
    14     6    31 1   
    15     7     8 ar  
    16     7    39 1   
    17     8    40 1   
    18     9    10 1   
    19     9    16 2   
    20     9    33 1   
    21    10    11 ar  
    22    10    15 ar  
    23    11    12 ar  
    24    11    41 1   
    25    12    13 ar  
    26    12    42 1   
    27    13    14 ar  
    28    13    37 1   
    29    14    15 ar  
    30    14    43 1   
    31    15    44 1   
    32    16    17 1   
    33    17    45 1   
    34    17    46 1   
    35    17    47 1   
    36    18    19 1   
    37    18    34 1   
    38    18    48 1   
    39    18    49 1   
    40    19    35 1   
    41    19    50 1   
    42    19    51 1   
    43    20    21 1   
    44    20    23 1   
    45    20    35 1   
    46    20    52 1   
    47    21    22 1   
    48    21    28 1   
    49    21    53 1   
    50    22    25 1   
    51    22    54 1   
    52    22    55 1   
    53    23    24 1   
    54    23    29 1   
    55    23    56 1   
    56    24    25 1   
    57    24    57 1   
    58    24    58 1   
    59    25    26 1   
    60    25    59 1   
    61    26    27 1   
    62    26    60 1   
    63    26    61 1   
    64    27    28 1   
    65    27    29 1   
    66    27    62 1   
    67    28    63 1   
    68    28    64 1   
    69    29    65 1   
    70    29    66 1   
    71    32    33 1   
    72    34    67 1   
    73    35    68 1   
@<TRIPOS>SUBSTRUCTURE
     1 1I2         1 TEMP              0 ****  ****    0 ROOT
