@<TRIPOS>MOLECULE
1I3
   67    71     1     0     0
SMALL
abcg2


@<TRIPOS>ATOM
      1 C1          -9.3020     9.9730    -3.6540 ca         1 1I3       0.288700
      2 C2         -10.1540    10.2840    -2.6110 ca         1 1I3      -0.070000
      3 C3          -9.5500    10.5540    -1.3890 ca         1 1I3       0.096400
      4 C5          -9.1030    11.1120     0.6100 cc         1 1I3       0.458800
      5 C6          -9.3270    11.4830     2.0430 c3         1 1I3      -0.079000
      6 C7          -9.8900    10.2790     2.8040 c3         1 1I3      -0.089100
      7 C8         -10.2840    12.6630     2.1390 c3         1 1I3       0.163600
      8 O9          -9.7360    13.7560     1.4540 os         1 1I3      -0.459000
      9 C12         -6.5540    11.1650     0.5810 c3         1 1I3       0.087300
     10 C15         -6.6670    13.4710    -0.4580 c6         1 1I3      -0.070400
     11 C16         -6.3910    14.9580    -0.2740 c6         1 1I3      -0.069900
     12 C17         -4.9490    15.2320     0.1390 c6         1 1I3      -0.063700
     13 C18         -4.6970    16.7190     0.3430 c3         1 1I3      -0.086100
     14 C19         -4.6190    14.4290     1.3930 c6         1 1I3      -0.069900
     15 C21         -8.1510    10.4970    -1.2670 ca         1 1I3      -0.117200
     16 C24         -5.9190     9.8790    -2.3480 cp         1 1I3      -0.188500
     17 C27         -3.2520     9.3360    -2.2800 ca         1 1I3       0.354900
     18 C30         -5.0700    10.6420    -3.1390 ca         1 1I3      -0.032000
     19 C31         -9.8020     9.7050    -5.0050 cc         1 1I3       0.323900
     20 C34        -11.1660     9.4620    -6.7220 c          1 1I3       0.654100
     21 N4         -10.1080    10.9180    -0.2070 nd         1 1I3      -0.586100
     22 C10        -10.6070    14.8570     1.4000 c3         1 1I3       0.147900
     23 N11         -7.8880    10.8800     0.0270 na         1 1I3      -0.146600
     24 C13         -6.2410    10.2680     1.7730 c3         1 1I3      -0.104100
     25 C14         -6.3420    12.6700     0.8040 c6         1 1I3      -0.073700
     26 C20         -4.8940    12.9380     1.2220 c6         1 1I3      -0.070400
     27 C22         -7.3830    10.1040    -2.3710 cp         1 1I3       0.426500
     28 N23         -7.9730     9.8780    -3.5270 nb         1 1I3      -0.626000
     29 C25         -5.3660     8.8600    -1.5770 ca         1 1I3       0.350900
     30 N26         -4.0680     8.5970    -1.5440 nb         1 1I3      -0.659000
     31 C28         -3.7160    10.3640    -3.0900 ca         1 1I3       0.055000
     32 CL29        -2.5990    11.2840    -4.0260 cl         1 1I3      -0.173000
     33 N32         -9.0420     9.3720    -5.9900 nd         1 1I3      -0.268700
     34 O33         -9.8870     9.2170    -7.0750 os         1 1I3      -0.229100
     35 O35        -12.1010     9.4000    -7.4700 o          1 1I3      -0.502000
     36 N36        -11.1050     9.7730    -5.3950 ns         1 1I3      -0.564900
     37 H1         -11.2300    10.3320    -2.7130 ha         1 1I3       0.137000
     38 H2          -8.3900    11.7740     2.5140 hc         1 1I3       0.069700
     39 H3         -10.0540    10.5390     3.8490 hc         1 1I3       0.047700
     40 H4         -10.8390     9.9570     2.3770 hc         1 1I3       0.047700
     41 H5          -9.1990     9.4370     2.7740 hc         1 1I3       0.047700
     42 H6         -10.4430    12.9020     3.2010 h1         1 1I3       0.037200
     43 H7         -11.2610    12.3830     1.7220 h1         1 1I3       0.037200
     44 H8          -5.8590    10.8900    -0.2090 h1         1 1I3       0.070700
     45 H9          -7.7110    13.3380    -0.7470 hc         1 1I3       0.042700
     46 H10         -6.0610    13.0910    -1.2900 hc         1 1I3       0.042700
     47 H11         -6.6260    15.4910    -1.2000 hc         1 1I3       0.042700
     48 H12         -7.0650    15.3590     0.4920 hc         1 1I3       0.042700
     49 H13         -4.2960    14.8780    -0.6700 hc         1 1I3       0.046700
     50 H14         -3.6580    16.9130     0.6170 hc         1 1I3       0.033700
     51 H15         -4.9140    17.2880    -0.5620 hc         1 1I3       0.033700
     52 H16         -5.3290    17.1140     1.1430 hc         1 1I3       0.033700
     53 H17         -3.5710    14.5780     1.6700 hc         1 1I3       0.042700
     54 H18         -5.2170    14.8120     2.2280 hc         1 1I3       0.042700
     55 H19         -2.1930     9.1100    -2.2320 h4         1 1I3       0.037100
     56 H20         -5.4580    11.4380    -3.7600 ha         1 1I3       0.148000
     57 H21        -10.1060    15.6550     0.8530 h1         1 1I3       0.031033
     58 H22        -11.5420    14.6140     0.8820 h1         1 1I3       0.031033
     59 H23        -10.8620    15.2300     2.3990 h1         1 1I3       0.031033
     60 H24         -5.1700    10.2660     1.9640 hc         1 1I3       0.050700
     61 H25         -6.7380    10.5840     2.6900 hc         1 1I3       0.050700
     62 H26         -6.5360     9.2390     1.5630 hc         1 1I3       0.050700
     63 H27         -6.9930    13.0240     1.6110 hc         1 1I3       0.067700
     64 H28         -4.6610    12.4250     2.1580 hc         1 1I3       0.042700
     65 H29         -4.2200    12.5240     0.4620 hc         1 1I3       0.042700
     66 H30         -6.0060     8.2360    -0.9630 h4         1 1I3       0.028100
     67 H31        -11.9110    10.0180    -4.8400 hn         1 1I3       0.479000
@<TRIPOS>BOND
     1     1     2 ar  
     2     1    19 1   
     3     1    28 ar  
     4     2     3 ar  
     5     2    37 1   
     6     3    15 ar  
     7     3    21 1   
     8     4     5 1   
     9     4    21 2   
    10     4    23 1   
    11     5     6 1   
    12     5     7 1   
    13     5    38 1   
    14     6    39 1   
    15     6    40 1   
    16     6    41 1   
    17     7     8 1   
    18     7    42 1   
    19     7    43 1   
    20     8    22 1   
    21     9    23 1   
    22     9    24 1   
    23     9    25 1   
    24     9    44 1   
    25    10    11 1   
    26    10    25 1   
    27    10    45 1   
    28    10    46 1   
    29    11    12 1   
    30    11    47 1   
    31    11    48 1   
    32    12    13 1   
    33    12    14 1   
    34    12    49 1   
    35    13    50 1   
    36    13    51 1   
    37    13    52 1   
    38    14    26 1   
    39    14    53 1   
    40    14    54 1   
    41    15    23 1   
    42    15    27 ar  
    43    16    18 ar  
    44    16    27 1   
    45    16    29 ar  
    46    17    30 ar  
    47    17    31 ar  
    48    17    55 1   
    49    18    31 ar  
    50    18    56 1   
    51    19    33 2   
    52    19    36 1   
    53    20    34 1   
    54    20    35 2   
    55    20    36 1   
    56    22    57 1   
    57    22    58 1   
    58    22    59 1   
    59    24    60 1   
    60    24    61 1   
    61    24    62 1   
    62    25    26 1   
    63    25    63 1   
    64    26    64 1   
    65    26    65 1   
    66    27    28 ar  
    67    29    30 ar  
    68    29    66 1   
    69    31    32 1   
    70    33    34 1   
    71    36    67 1   
@<TRIPOS>SUBSTRUCTURE
     1 1I3         1 TEMP              0 ****  ****    0 ROOT
