@<TRIPOS>MOLECULE
1I3
   67    71     1     0     0
SMALL
No Charge or Current Charge


@<TRIPOS>ATOM
      1 C1          -9.1940     9.9470    -3.7740 ca         1 1I3       0.288700
      2 C2         -10.0630    10.3030    -2.7130 ca         1 1I3      -0.070000
      3 C3          -9.4890    10.5590    -1.4660 ca         1 1I3       0.096400
      4 C5          -9.0920    11.0060     0.6130 cc         1 1I3       0.458800
      5 C6          -9.3220    11.3200     2.0780 c3         1 1I3      -0.079000
      6 C7          -9.8480    10.0800     2.8380 c3         1 1I3      -0.089100
      7 C8         -10.2510    12.5380     2.2720 c3         1 1I3       0.163600
      8 O9          -9.6110    13.6820     1.6830 os         1 1I3      -0.459000
      9 C12         -6.4880    11.2080     0.4580 c3         1 1I3       0.087300
     10 C15         -6.8600    13.5790    -0.5210 c6         1 1I3      -0.070400
     11 C16         -6.7190    15.1030    -0.2940 c6         1 1I3      -0.069900
     12 C17         -5.2560    15.4960     0.0290 c6         1 1I3      -0.063700
     13 C18         -5.1140    17.0250     0.2520 c3         1 1I3      -0.086100
     14 C19         -4.7460    14.6940     1.2540 c6         1 1I3      -0.069900
     15 C21         -8.1500    10.4500    -1.3150 ca         1 1I3      -0.117200
     16 C24         -5.8770     9.5980    -2.2450 cp         1 1I3      -0.188500
     17 C27         -3.2610     8.7520    -1.9470 ca         1 1I3       0.354900
     18 C30         -4.8730    10.1700    -3.0640 ca         1 1I3      -0.032000
     19 C31         -9.7510     9.6750    -5.1180 cc         1 1I3       0.323900
     20 C34        -11.1520     9.9000    -6.8420 c          1 1I3       0.654100
     21 N4         -10.1100    10.8800    -0.2710 nd         1 1I3      -0.586100
     22 C10        -10.3670    14.9000     1.7680 c3         1 1I3       0.147900
     23 N11         -7.8390    10.7720    -0.0070 na         1 1I3      -0.146600
     24 C13         -5.9820    10.3130     1.6180 c3         1 1I3      -0.104100
     25 C14         -6.3500    12.7550     0.7020 c6         1 1I3      -0.073700
     26 C20         -4.8830    13.1680     1.0310 c6         1 1I3      -0.070400
     27 C22         -7.3010    10.0000    -2.3620 cp         1 1I3       0.426500
     28 N23         -7.8450     9.7990    -3.5860 nb         1 1I3      -0.626000
     29 C25         -5.4900     8.5970    -1.3270 ca         1 1I3       0.350900
     30 N26         -4.2130     8.1790    -1.1680 nb         1 1I3      -0.659000
     31 C28         -3.5450     9.7440    -2.9070 ca         1 1I3       0.055000
     32 Cl29        -2.2640    10.4440    -3.8930 cl         1 1I3      -0.173000
     33 N32         -9.3350     8.7560    -5.9780 nd         1 1I3      -0.268700
     34 O33        -10.2430     8.9010    -7.1080 os         1 1I3      -0.229100
     35 O35        -12.0510    10.3100    -7.5550 o          1 1I3      -0.502000
     36 N36        -10.8190    10.3350    -5.6250 ns         1 1I3      -0.564900
     37 H1         -11.1370    10.3720    -2.8530 ha         1 1I3       0.137000
     38 H2          -8.3760    11.5880     2.5510 hc         1 1I3       0.069700
     39 H3          -9.9580    10.2960     3.9080 hc         1 1I3       0.047700
     40 H4         -10.8250     9.7670     2.4490 hc         1 1I3       0.047700
     41 H5          -9.1520     9.2390     2.7310 hc         1 1I3       0.047700
     42 H6         -10.4170    12.7040     3.3440 h1         1 1I3       0.037200
     43 H7         -11.2250    12.3460     1.8010 h1         1 1I3       0.037200
     44 H8          -5.7880    11.0350    -0.3590 h1         1 1I3       0.070700
     45 H9          -7.9160    13.3570    -0.7230 hc         1 1I3       0.042700
     46 H10         -6.3050    13.2890    -1.4240 hc         1 1I3       0.042700
     47 H11         -7.0630    15.6400    -1.1890 hc         1 1I3       0.042700
     48 H12         -7.3800    15.4140     0.5280 hc         1 1I3       0.042700
     49 H13         -4.6260    15.2500    -0.8380 hc         1 1I3       0.046700
     50 H14         -4.0710    17.3010     0.4470 hc         1 1I3       0.033700
     51 H15         -5.4440    17.5860    -0.6310 hc         1 1I3       0.033700
     52 H16         -5.7140    17.3620     1.1060 hc         1 1I3       0.033700
     53 H17         -3.6940    14.9420     1.4520 hc         1 1I3       0.042700
     54 H18         -5.3090    14.9850     2.1520 hc         1 1I3       0.042700
     55 H19         -2.2400     8.4020    -1.8010 h4         1 1I3       0.037100
     56 H20         -5.1210    10.9340    -3.7980 ha         1 1I3       0.148000
     57 H21         -9.8150    15.7240     1.2980 h1         1 1I3       0.031033
     58 H22        -11.3310    14.7970     1.2530 h1         1 1I3       0.031033
     59 H23        -10.5570    15.1690     2.8150 h1         1 1I3       0.031033
     60 H24         -4.8900    10.3640     1.6980 hc         1 1I3       0.050700
     61 H25         -6.4020    10.6160     2.5830 hc         1 1I3       0.050700
     62 H26         -6.2470     9.2640     1.4470 hc         1 1I3       0.050700
     63 H27         -6.9710    13.0100     1.5700 hc         1 1I3       0.067700
     64 H28         -4.5330    12.6550     1.9360 hc         1 1I3       0.042700
     65 H29         -4.2140    12.8550     0.2170 hc         1 1I3       0.042700
     66 H30         -6.2340     8.1140    -0.6950 h4         1 1I3       0.028100
     67 H31        -11.3130    11.1030    -5.1880 hn         1 1I3       0.479000
@<TRIPOS>BOND
     1     1     2 ar  
     2     1    19 1   
     3     1    28 ar  
     4     2     3 ar  
     5     2    37 1   
     6     3    15 ar  
     7     3    21 1   
     8     4     5 1   
     9     4    21 2   
    10     4    23 1   
    11     5     6 1   
    12     5     7 1   
    13     5    38 1   
    14     6    39 1   
    15     6    40 1   
    16     6    41 1   
    17     7     8 1   
    18     7    42 1   
    19     7    43 1   
    20     8    22 1   
    21     9    23 1   
    22     9    24 1   
    23     9    25 1   
    24     9    44 1   
    25    10    11 1   
    26    10    25 1   
    27    10    45 1   
    28    10    46 1   
    29    11    12 1   
    30    11    47 1   
    31    11    48 1   
    32    12    13 1   
    33    12    14 1   
    34    12    49 1   
    35    13    50 1   
    36    13    51 1   
    37    13    52 1   
    38    14    26 1   
    39    14    53 1   
    40    14    54 1   
    41    15    23 1   
    42    15    27 ar  
    43    16    18 ar  
    44    16    27 1   
    45    16    29 ar  
    46    17    30 ar  
    47    17    31 ar  
    48    17    55 1   
    49    18    31 ar  
    50    18    56 1   
    51    19    33 2   
    52    19    36 1   
    53    20    34 1   
    54    20    35 2   
    55    20    36 1   
    56    22    57 1   
    57    22    58 1   
    58    22    59 1   
    59    24    60 1   
    60    24    61 1   
    61    24    62 1   
    62    25    26 1   
    63    25    63 1   
    64    26    64 1   
    65    26    65 1   
    66    27    28 ar  
    67    29    30 ar  
    68    29    66 1   
    69    31    32 1   
    70    33    34 1   
    71    36    67 1   
@<TRIPOS>SUBSTRUCTURE
     1 1I3         1 TEMP              0 ****  ****    0 ROOT
