@<TRIPOS>MOLECULE
1I6
   60    62     1     0     0
SMALL
bcc


@<TRIPOS>ATOM
      1 C1          36.3820    20.9710   161.4770 c3         1 1I6       0.124700
      2 C3          37.5180    22.6300   162.6840 c          1 1I6       0.641300
      3 C5          37.3530    23.9180   163.4410 ce         1 1I6       0.155900
      4 C7          38.4370    24.6870   163.6940 cf         1 1I6      -0.379200
      5 C8          38.2520    26.0280   164.2160 c          1 1I6       0.604300
      6 C10         39.3580    27.0690   164.0630 c6         1 1I6      -0.125000
      7 C11         39.0560    27.7980   162.7150 c3         1 1I6      -0.023100
      8 C12         38.6780    26.8670   161.5970 ca         1 1I6      -0.085300
      9 C13         37.3370    26.6210   161.3120 ca         1 1I6      -0.119000
     10 C14         36.9580    25.6320   160.4160 ca         1 1I6      -0.117500
     11 C15         37.9410    24.8870   159.7860 ca         1 1I6       0.024400
     12 C17         39.2850    25.1540   159.9960 ca         1 1I6      -0.117500
     13 C18         39.6420    26.1480   160.8940 ca         1 1I6      -0.119000
     14 C19         39.3030    28.0940   165.2000 c6         1 1I6      -0.066400
     15 C20         39.7330    27.5010   166.5320 c6         1 1I6       0.162800
     16 C23         41.7160    27.5320   168.7600 ca         1 1I6      -0.050300
     17 C24         41.1720    27.3930   170.0350 ca         1 1I6      -0.214000
     18 C25         41.3780    28.3740   171.0040 ca         1 1I6       0.138100
     19 C27         40.1020    27.1990   172.6240 c3         1 1I6       0.126700
     20 C28         42.1310    29.5060   170.6890 ca         1 1I6      -0.162000
     21 C29         42.6650    29.6400   169.4180 ca         1 1I6      -0.099000
     22 C30         42.4630    28.6630   168.4520 ca         1 1I6      -0.144000
     23 C31         41.1450    25.9150   165.4360 c6         1 1I6       0.162800
     24 C32         40.7670    26.4690   164.0720 c6         1 1I6      -0.066400
     25 N21         41.0710    26.9450   166.4560 n3         1 1I6      -0.717600
     26 O2          36.3660    22.1790   162.2430 os         1 1I6      -0.383900
     27 O4          38.5870    22.1090   162.5030 o          1 1I6      -0.515000
     28 O6          36.1170    24.2350   163.7500 oh         1 1I6      -0.477100
     29 O9          37.1510    26.3750   164.6490 o          1 1I6      -0.592100
     30 O26         40.8860    28.3140   172.2560 os         1 1I6      -0.318900
     31 CL1         37.4820    23.6030   158.7120 cl         1 1I6      -0.116400
     32 H1          35.3480    20.7790   161.2080 h1         1 1I6       0.053700
     33 H2          36.9790    21.0890   160.5740 h1         1 1I6       0.053700
     34 H3          36.7680    20.1380   162.0640 h1         1 1I6       0.053700
     35 H4          39.4050    24.3380   163.3770 ha         1 1I6       0.174000
     36 H5          39.9410    28.3830   162.4550 hc         1 1I6       0.060700
     37 H6          38.2430    28.5080   162.8860 hc         1 1I6       0.060700
     38 H7          36.5670    27.1880   161.8210 ha         1 1I6       0.139000
     39 H8          35.9110    25.4390   160.2250 ha         1 1I6       0.151500
     40 H9          40.0470    24.5890   159.4750 ha         1 1I6       0.151500
     41 H10         40.6940    26.3470   161.0600 ha         1 1I6       0.139000
     42 H11         39.9720    28.9190   164.9410 hc         1 1I6       0.056950
     43 H12         38.3020    28.5170   165.2920 hc         1 1I6       0.056950
     44 H13         39.7140    28.2870   167.2900 h1         1 1I6       0.039200
     45 H14         39.0050    26.7370   166.8580 h1         1 1I6       0.039200
     46 H15         40.8290    25.6800   168.1430 h1         1 1I6       0.038700
     47 H16         42.4750    25.9330   167.5830 h1         1 1I6       0.038700
     48 H17         40.5840    26.5110   170.2540 ha         1 1I6       0.131000
     49 H18         39.8050    27.3560   173.6580 h1         1 1I6       0.039700
     50 H19         39.2010    27.1100   172.0110 h1         1 1I6       0.039700
     51 H20         40.6630    26.2630   172.5590 h1         1 1I6       0.039700
     52 H21         42.2900    30.2700   171.4390 ha         1 1I6       0.144000
     53 H22         43.2480    30.5210   169.1800 ha         1 1I6       0.132000
     54 H23         42.8810    28.7820   167.4600 ha         1 1I6       0.145000
     55 H24         40.5040    25.0510   165.6890 h1         1 1I6       0.039200
     56 H25         42.1690    25.5350   165.3970 h1         1 1I6       0.039200
     57 H26         40.9010    25.6950   163.3150 hc         1 1I6       0.056950
     58 H27         41.4690    27.2670   163.8130 hc         1 1I6       0.056950
     59 H29         36.1660    25.1130   164.2150 ho         1 1I6       0.484000
     60 C22         41.5180    26.4410   167.7380 c3         1 1I6       0.211100
@<TRIPOS>BOND
     1     1    26 1   
     2     1    32 1   
     3     1    33 1   
     4     1    34 1   
     5     2     3 1   
     6     2    26 1   
     7     2    27 2   
     8     3     4 2   
     9     3    28 1   
    10     4     5 1   
    11     4    35 1   
    12     5     6 1   
    13     5    29 2   
    14     6     7 1   
    15     6    14 1   
    16     6    24 1   
    17     7     8 1   
    18     7    36 1   
    19     7    37 1   
    20     8     9 ar  
    21     8    13 ar  
    22     9    10 ar  
    23     9    38 1   
    24    10    11 ar  
    25    10    39 1   
    26    11    12 ar  
    27    11    31 1   
    28    12    13 ar  
    29    12    40 1   
    30    13    41 1   
    31    14    15 1   
    32    14    42 1   
    33    14    43 1   
    34    15    25 1   
    35    15    44 1   
    36    15    45 1   
    37    16    17 ar  
    38    16    22 ar  
    39    16    60 1   
    40    17    18 ar  
    41    17    48 1   
    42    18    20 ar  
    43    18    30 1   
    44    19    30 1   
    45    19    49 1   
    46    19    50 1   
    47    19    51 1   
    48    20    21 ar  
    49    20    52 1   
    50    21    22 ar  
    51    21    53 1   
    52    22    54 1   
    53    23    24 1   
    54    23    25 1   
    55    23    55 1   
    56    23    56 1   
    57    24    57 1   
    58    24    58 1   
    59    25    60 1   
    60    28    59 1   
    61    46    60 1   
    62    47    60 1   
@<TRIPOS>SUBSTRUCTURE
     1 1I6         1 TEMP              0 ****  ****    0 ROOT
