@<TRIPOS>MOLECULE
1I6
   60    62     1     0     0
SMALL
No Charge or Current Charge


@<TRIPOS>ATOM
      1 C1          36.3670    20.1650   164.1480 c3         1 1I6       0.147900
      2 C3          37.3980    22.3480   164.0230 c          1 1I6       0.592300
      3 C5          37.1400    23.8550   164.0960 ce         1 1I6       0.155900
      4 C7          38.1280    24.7900   163.9490 cf         1 1I6      -0.429200
      5 C8          37.9330    26.2700   163.9940 c          1 1I6       0.604300
      6 C10         39.1350    27.2680   163.8380 c6         1 1I6      -0.125000
      7 C11         38.8290    28.1840   162.5970 c3         1 1I6      -0.023100
      8 C12         38.7990    27.4500   161.2570 ca         1 1I6      -0.085300
      9 C13         37.6010    26.8800   160.7790 ca         1 1I6      -0.101000
     10 C14         37.5780    26.2010   159.5480 ca         1 1I6      -0.099500
     11 C15         38.7510    26.0940   158.7840 ca         1 1I6       0.116000
     12 C17         39.9450    26.6700   159.2450 ca         1 1I6      -0.099500
     13 C18         39.9690    27.3490   160.4760 ca         1 1I6      -0.101000
     14 C19         39.2340    28.1470   165.1290 c6         1 1I6      -0.066400
     15 C20         39.7220    27.3600   166.3670 c6         1 1I6       0.162800
     16 C23         41.8390    27.1310   168.5170 ca         1 1I6      -0.050300
     17 C24         41.0450    26.9890   169.6740 ca         1 1I6      -0.196000
     18 C25         41.2050    27.8780   170.7610 ca         1 1I6       0.138100
     19 C27         39.4440    26.7730   172.0930 c3         1 1I6       0.149900
     20 C28         42.1600    28.9040   170.6830 ca         1 1I6      -0.144000
     21 C29         42.9540    29.0500   169.5330 ca         1 1I6      -0.081000
     22 C30         42.7920    28.1660   168.4540 ca         1 1I6      -0.126000
     23 C31         41.1010    25.9140   164.9570 c6         1 1I6       0.162800
     24 C32         40.5540    26.6060   163.6710 c6         1 1I6      -0.066400
     25 N21         41.0840    26.8170   166.1330 n3         1 1I6      -0.717600
     26 O2          36.2540    21.6000   164.1960 os         1 1I6      -0.407100
     27 O4          38.5050    21.8550   163.8320 o          1 1I6      -0.466000
     28 O6          35.8580    24.2640   164.3140 oh         1 1I6      -0.516100
     29 O9          36.7830    26.6940   164.0430 o          1 1I6      -0.592100
     30 O26         40.4520    27.7840   171.9140 os         1 1I6      -0.342100
     31 Cl1         38.7210    25.2440   157.2440 cl         1 1I6      -0.208000
     32 H1          35.3850    19.7000   164.3000 h1         1 1I6       0.053700
     33 H2          36.7530    19.8350   163.1750 h1         1 1I6       0.053700
     34 H3          37.0410    19.7990   164.9330 h1         1 1I6       0.053700
     35 H4          39.1250    24.4130   163.7510 ha         1 1I6       0.224000
     36 H5          39.5770    28.9850   162.5420 hc         1 1I6       0.060700
     37 H6          37.8770    28.7110   162.7440 hc         1 1I6       0.060700
     38 H7          36.6850    26.9630   161.3590 ha         1 1I6       0.121000
     39 H8          36.6530    25.7600   159.1870 ha         1 1I6       0.133500
     40 H9          40.8510    26.5900   158.6490 ha         1 1I6       0.133500
     41 H10         40.8990    27.7920   160.8240 ha         1 1I6       0.121000
     42 H11         39.9230    28.9860   164.9600 hc         1 1I6       0.056950
     43 H12         38.2600    28.6030   165.3530 hc         1 1I6       0.056950
     44 H13         39.7220    28.0440   167.2280 h1         1 1I6       0.039200
     45 H14         39.0130    26.5500   166.5970 h1         1 1I6       0.039200
     46 H15         41.0470    25.3250   167.6470 h1         1 1I6       0.038700
     47 H16         42.6600    25.7690   167.0920 h1         1 1I6       0.038700
     48 H17         40.3110    26.1900   169.7100 ha         1 1I6       0.113000
     49 H18         38.9680    26.8810   173.0750 h1         1 1I6       0.039700
     50 H19         38.6630    26.8610   171.3260 h1         1 1I6       0.039700
     51 H20         39.8830    25.7690   172.0350 h1         1 1I6       0.039700
     52 H21         42.2850    29.5890   171.5180 ha         1 1I6       0.126000
     53 H22         43.6910    29.8490   169.4770 ha         1 1I6       0.114000
     54 H23         43.4030    28.2850   167.5620 ha         1 1I6       0.127000
     55 H24         40.5240    25.0090   165.1860 h1         1 1I6       0.039200
     56 H25         42.1300    25.5810   164.7560 h1         1 1I6       0.039200
     57 H26         40.5600    25.8930   162.8370 hc         1 1I6       0.056950
     58 H27         41.2770    27.3840   163.3880 hc         1 1I6       0.056950
     59 H29         35.9160    25.2530   164.2650 ho         1 1I6       0.523000
     60 C22         41.6690    26.1760   167.3360 c3         1 1I6       0.211100
@<TRIPOS>BOND
     1     1    26 1   
     2     1    32 1   
     3     1    33 1   
     4     1    34 1   
     5     2     3 1   
     6     2    26 1   
     7     2    27 2   
     8     3     4 2   
     9     3    28 1   
    10     4     5 1   
    11     4    35 1   
    12     5     6 1   
    13     5    29 2   
    14     6     7 1   
    15     6    14 1   
    16     6    24 1   
    17     7     8 1   
    18     7    36 1   
    19     7    37 1   
    20     8     9 ar  
    21     8    13 ar  
    22     9    10 ar  
    23     9    38 1   
    24    10    11 ar  
    25    10    39 1   
    26    11    12 ar  
    27    11    31 1   
    28    12    13 ar  
    29    12    40 1   
    30    13    41 1   
    31    14    15 1   
    32    14    42 1   
    33    14    43 1   
    34    15    25 1   
    35    15    44 1   
    36    15    45 1   
    37    16    17 ar  
    38    16    22 ar  
    39    16    60 1   
    40    17    18 ar  
    41    17    48 1   
    42    18    20 ar  
    43    18    30 1   
    44    19    30 1   
    45    19    49 1   
    46    19    50 1   
    47    19    51 1   
    48    20    21 ar  
    49    20    52 1   
    50    21    22 ar  
    51    21    53 1   
    52    22    54 1   
    53    23    24 1   
    54    23    25 1   
    55    23    55 1   
    56    23    56 1   
    57    24    57 1   
    58    24    58 1   
    59    25    60 1   
    60    28    59 1   
    61    46    60 1   
    62    47    60 1   
@<TRIPOS>SUBSTRUCTURE
     1 1I6         1 TEMP              0 ****  ****    0 ROOT
