@<TRIPOS>MOLECULE
1I7
  106   111     1     0     0
SMALL
abcg2


@<TRIPOS>ATOM
      1 N12        232.5710   164.9380   243.0560 na         1 1I7      -0.214700
      2 C20        231.9200   166.9020   239.0130 c3         1 1I7       0.032700
      3 C21        232.8250   167.2530   240.2080 c3         1 1I7      -0.006200
      4 C22        228.2650   167.8560   238.6990 c3         1 1I7       0.043700
      5 C24        232.5060   166.5320   241.4810 cc         1 1I7      -0.137400
      6 C26        231.5640   166.8560   242.5180 ca         1 1I7      -0.122800
      7 C28        227.9420   164.6250   240.5190 ca         1 1I7      -0.105800
      8 C23        227.6280   167.1470   239.9130 c3         1 1I7      -0.011200
      9 C25        227.3910   165.6840   239.7230 cc         1 1I7      -0.184400
     10 C27        229.6080   167.2370   238.3290 c          1 1I7       0.593100
     11 C29        231.6370   165.8320   243.4840 ca         1 1I7      -0.024200
     12 C30        232.0560   165.4170   238.6870 c          1 1I7       0.598100
     13 C31        233.0900   165.3560   241.8670 cd         1 1I7      -0.155100
     14 C32        227.4320   163.4080   240.0060 ca         1 1I7      -0.057200
     15 C33        226.5850   165.0730   238.7990 cd         1 1I7      -0.116100
     16 C34        230.6580   167.9120   242.7400 ca         1 1I7       0.173100
     17 C35        230.8550   165.8160   244.6420 ca         1 1I7      -0.158000
     18 C36        228.7990   164.5870   241.6270 ca         1 1I7      -0.083000
     19 C37        229.8740   167.9080   243.8790 ca         1 1I7      -0.225000
     20 C38        227.7620   162.1720   240.5610 ca         1 1I7      -0.120000
     21 C39        226.3100   168.5440   237.4020 c          1 1I7       0.537600
     22 C40        231.1220   163.1850   239.0030 c3         1 1I7       0.021000
     23 C41        229.9820   166.8650   244.8160 ca         1 1I7      -0.052000
     24 C42        229.1300   163.3630   242.1770 ca         1 1I7      -0.147000
     25 C43        228.6140   162.1670   241.6490 ca         1 1I7      -0.110000
     26 C44        225.5180   168.2320   236.1850 cc         1 1I7       0.208500
     27 C45        229.5750   163.2930   235.5210 c3         1 1I7       0.046700
     28 C46        230.5650   162.6830   237.6790 c          1 1I7       0.595100
     29 C47        229.8700   164.4190   234.5400 c3         1 1I7      -0.078400
     30 C48        225.2390   166.0770   233.2560 c3         1 1I7       0.091400
     31 C49        225.0900   167.1080   234.3450 cd         1 1I7       0.395700
     32 C50        224.3400   168.8370   235.8690 cd         1 1I7      -0.212000
     33 C51        228.0780   163.0100   235.6260 c          1 1I7       0.590100
     34 C52        229.7320   169.9660   241.9550 c3         1 1I7       0.142900
     35 C53        231.3620   164.6580   234.3620 c3         1 1I7      -0.091100
     36 C54        226.6320   166.1220   232.6450 c3         1 1I7      -0.097100
     37 C55        223.5800   162.8670   234.4730 c3         1 1I7       0.006000
     38 C56        223.7300   164.2350   233.8170 c          1 1I7       0.586100
     39 C57        226.4970   161.2590   236.2770 ce         1 1I7      -0.036600
     40 C58        225.2930   162.1280   236.0040 c          1 1I7       0.630300
     41 C60        226.3060   160.0640   236.8310 c2         1 1I7      -0.353000
     42 N10        230.5580   167.3150   239.2700 ns         1 1I7      -0.497900
     43 N11        227.4190   167.8040   237.5370 ns         1 1I7      -0.483900
     44 N13        226.6150   163.7200   238.9620 na         1 1I7      -0.210700
     45 N14        231.1110   164.6070   239.1870 ns         1 1I7      -0.496900
     46 N15        230.0670   163.6070   236.8460 ns         1 1I7      -0.489900
     47 N16        225.9280   167.2640   235.3160 nc         1 1I7      -0.630000
     48 N17        224.9620   164.7610   233.7930 ns         1 1I7      -0.494900
     49 N18        227.7730   161.7470   235.9990 ns         1 1I7      -0.412100
     50 N19        224.8030   162.1490   234.7530 n          1 1I7      -0.390800
     51 O02        229.7940   166.6860   237.2510 o          1 1I7      -0.629100
     52 O03        230.6140   168.8700   241.7850 os         1 1I7      -0.367100
     53 O04        233.0050   165.0160   238.0330 o          1 1I7      -0.608100
     54 O05        225.9440   169.3940   238.2010 o          1 1I7      -0.617100
     55 O06        230.5870   161.4850   237.4280 o          1 1I7      -0.647100
     56 O07        227.2330   163.8660   235.4250 o          1 1I7      -0.604100
     57 O08        222.7440   164.7860   233.3530 o          1 1I7      -0.615100
     58 O09        224.7550   162.7000   236.9440 o          1 1I7      -0.610100
     59 S01        223.7210   168.1570   234.4340 ss         1 1I7       0.036600
     60 H121       232.8480   164.1050   243.5480 hn         1 1I7       0.355000
     61 H201       232.3080   167.4350   238.1390 h1         1 1I7       0.082700
     62 H212       233.8460   167.0170   239.9060 hc         1 1I7       0.067200
     63 H211       232.7960   168.3350   240.3480 hc         1 1I7       0.067200
     64 H221       228.4360   168.9030   238.9740 h1         1 1I7       0.074700
     65 H231       228.2610   167.3040   240.7890 hc         1 1I7       0.059700
     66 H232       226.6950   167.6690   240.1360 hc         1 1I7       0.059700
     67 H311       233.8540   164.7810   241.3670 h4         1 1I7       0.222000
     68 H331       225.9670   165.5050   238.0280 h4         1 1I7       0.229000
     69 H351       230.9340   165.0140   245.3640 ha         1 1I7       0.120000
     70 H361       229.2040   165.5000   242.0480 ha         1 1I7       0.120000
     71 H371       229.1680   168.7030   244.0730 ha         1 1I7       0.120000
     72 H381       227.3630   161.2510   240.1550 ha         1 1I7       0.117000
     73 H402       230.5280   162.7320   239.7990 h1         1 1I7       0.085200
     74 H401       232.1340   162.7870   239.1010 h1         1 1I7       0.085200
     75 H411       229.3530   166.8960   245.6970 ha         1 1I7       0.116000
     76 H421       229.7940   163.3230   243.0300 ha         1 1I7       0.104000
     77 H431       228.8890   161.2240   242.1020 ha         1 1I7       0.108000
     78 H451       230.0840   162.3880   235.1790 h1         1 1I7       0.079700
     79 H472       229.3770   165.3370   234.8640 hc         1 1I7       0.060200
     80 H471       229.4240   164.1540   233.5780 hc         1 1I7       0.060200
     81 H481       224.5040   166.2810   232.4770 h1         1 1I7       0.081700
     82 H501       223.8260   169.6190   236.4030 h4         1 1I7       0.179000
     83 H523       229.8640   170.6030   241.0840 h1         1 1I7       0.047367
     84 H522       228.6900   169.6410   242.0030 h1         1 1I7       0.047367
     85 H521       229.9710   170.5360   242.8550 h1         1 1I7       0.047367
     86 H532       231.5350   165.4380   233.6210 hc         1 1I7       0.042033
     87 H533       231.8390   164.9760   235.2890 hc         1 1I7       0.042033
     88 H531       231.8700   163.7560   234.0170 hc         1 1I7       0.042033
     89 H543       226.8270   167.1060   232.2220 hc         1 1I7       0.051033
     90 H542       227.3990   165.9140   233.3900 hc         1 1I7       0.051033
     91 H541       226.7130   165.3850   231.8470 hc         1 1I7       0.051033
     92 H552       223.0150   163.0060   235.3940 h1         1 1I7       0.089700
     93 H551       222.9600   162.2590   233.8110 h1         1 1I7       0.089700
     94 H592       226.3110   160.9410   233.9140 h1         1 1I7       0.048367
     95 H593       224.7000   160.7080   233.2400 h1         1 1I7       0.048367
     96 H591       225.6360   162.1530   232.8300 h1         1 1I7       0.048367
     97 H602       227.1350   159.4170   237.0920 ha         1 1I7       0.186000
     98 H2         225.3090   159.6990   237.0260 ha         1 1I7       0.186000
     99 H101       230.3980   167.9000   240.0820 hn         1 1I7       0.347500
    100 H111       227.6400   167.1310   236.8160 hn         1 1I7       0.365500
    101 H131       226.0400   163.0850   238.4200 hn         1 1I7       0.384000
    102 H141       230.4000   164.9940   239.7880 hn         1 1I7       0.345500
    103 H151       230.0190   164.5740   237.1410 hn         1 1I7       0.362500
    104 H171       225.7140   164.3110   234.3030 hn         1 1I7       0.357500
    105 H181       228.5450   161.1290   236.2140 hn         1 1I7       0.351500
    106 C59        225.3970   161.4510   233.6290 c3         1 1I7       0.086300
@<TRIPOS>BOND
     1     1    11 1   
     2     1    13 1   
     3     1    60 1   
     4     2     3 1   
     5     2    12 1   
     6     2    42 1   
     7     2    61 1   
     8     3     5 1   
     9     3    62 1   
    10     3    63 1   
    11     4     8 1   
    12     4    10 1   
    13     4    43 1   
    14     4    64 1   
    15     5     6 1   
    16     5    13 2   
    17     6    11 ar  
    18     6    16 ar  
    19     7     9 1   
    20     7    14 ar  
    21     7    18 ar  
    22     8     9 1   
    23     8    65 1   
    24     8    66 1   
    25     9    15 2   
    26    10    42 1   
    27    10    51 2   
    28    11    17 ar  
    29    12    45 1   
    30    12    53 2   
    31    13    67 1   
    32    14    20 ar  
    33    14    44 1   
    34    15    44 1   
    35    15    68 1   
    36    16    19 ar  
    37    16    52 1   
    38    17    23 ar  
    39    17    69 1   
    40    18    24 ar  
    41    18    70 1   
    42    19    23 ar  
    43    19    71 1   
    44    20    25 ar  
    45    20    72 1   
    46    21    26 1   
    47    21    43 1   
    48    21    54 2   
    49    22    28 1   
    50    22    45 1   
    51    22    73 1   
    52    22    74 1   
    53    23    75 1   
    54    24    25 ar  
    55    24    76 1   
    56    25    77 1   
    57    26    32 2   
    58    26    47 1   
    59    27    29 1   
    60    27    33 1   
    61    27    46 1   
    62    27    78 1   
    63    28    46 1   
    64    28    55 2   
    65    29    35 1   
    66    29    79 1   
    67    29    80 1   
    68    30    31 1   
    69    30    36 1   
    70    30    48 1   
    71    30    81 1   
    72    31    47 2   
    73    31    59 1   
    74    32    59 1   
    75    32    82 1   
    76    33    49 1   
    77    33    56 2   
    78    34    52 1   
    79    34    83 1   
    80    34    84 1   
    81    34    85 1   
    82    35    86 1   
    83    35    87 1   
    84    35    88 1   
    85    36    89 1   
    86    36    90 1   
    87    36    91 1   
    88    37    38 1   
    89    37    50 1   
    90    37    92 1   
    91    37    93 1   
    92    38    48 1   
    93    38    57 2   
    94    39    40 1   
    95    39    41 2   
    96    39    49 1   
    97    40    50 1   
    98    40    58 2   
    99    41    97 1   
   100    41    98 1   
   101    42    99 1   
   102    43   100 1   
   103    44   101 1   
   104    45   102 1   
   105    46   103 1   
   106    48   104 1   
   107    49   105 1   
   108    50   106 1   
   109    94   106 1   
   110    95   106 1   
   111    96   106 1   
@<TRIPOS>SUBSTRUCTURE
     1 1I7         1 TEMP              0 ****  ****    0 ROOT
