@<TRIPOS>MOLECULE
1I7
  106   111     1     0     0
SMALL
No Charge or Current Charge


@<TRIPOS>ATOM
      1 N12        232.5030   164.9270   243.3930 na         1 1I7      -0.214700
      2 C20        232.1510   166.7540   239.2160 c3         1 1I7       0.032700
      3 C21        232.9860   167.1950   240.4400 c3         1 1I7      -0.006200
      4 C22        228.4320   167.7910   238.7270 c3         1 1I7       0.043700
      5 C24        232.5880   166.4910   241.7160 cc         1 1I7      -0.137400
      6 C26        231.5250   166.8310   242.6370 ca         1 1I7      -0.122800
      7 C28        227.9310   164.5450   240.3560 ca         1 1I7      -0.105800
      8 C23        227.6960   167.1360   239.9250 c3         1 1I7      -0.011200
      9 C25        227.3540   165.6840   239.6980 cc         1 1I7      -0.184400
     10 C27        229.7770   167.0850   238.4030 c          1 1I7       0.593100
     11 C29        231.5140   165.8660   243.6090 ca         1 1I7      -0.024200
     12 C30        232.3650   165.2430   238.9080 c          1 1I7       0.598100
     13 C31        233.1670   165.3270   242.2110 cd         1 1I7      -0.155100
     14 C32        227.3320   163.4250   239.8520 ca         1 1I7      -0.057200
     15 C33        226.4030   165.1720   238.8180 cd         1 1I7      -0.116100
     16 C34        230.6050   167.9020   242.6600 ca         1 1I7       0.173100
     17 C35        230.5870   165.8820   244.6580 ca         1 1I7      -0.158000
     18 C36        228.8990   164.4710   241.3680 ca         1 1I7      -0.083000
     19 C37        229.6570   167.9370   243.7120 ca         1 1I7      -0.225000
     20 C38        227.6680   162.1440   240.3100 ca         1 1I7      -0.120000
     21 C39        226.5110   168.6950   237.3310 c          1 1I7       0.537600
     22 C40        231.2780   162.9540   238.8510 c3         1 1I7       0.021000
     23 C41        229.6490   166.9310   244.7040 ca         1 1I7      -0.052000
     24 C42        229.2560   163.1960   241.8520 ca         1 1I7      -0.147000
     25 C43        228.6440   162.0350   241.3240 ca         1 1I7      -0.110000
     26 C44        225.6810   168.3420   236.1260 cc         1 1I7       0.208500
     27 C45        229.4800   163.5180   235.4270 c3         1 1I7       0.046700
     28 C46        230.5840   162.6080   237.5140 c          1 1I7       0.595100
     29 C47        229.7260   164.7390   234.5040 c3         1 1I7      -0.078400
     30 C48        224.9920   166.0610   233.3260 c3         1 1I7       0.091400
     31 C49        225.0100   167.1780   234.3580 cd         1 1I7       0.395700
     32 C50        224.5890   169.1020   235.7730 cd         1 1I7      -0.212000
     33 C51        227.9780   163.1780   235.6250 c          1 1I7       0.590100
     34 C52        229.7770   170.0160   241.6860 c3         1 1I7       0.142900
     35 C53        231.2180   165.0570   234.2690 c3         1 1I7      -0.091100
     36 C54        226.2790   166.0150   232.4770 c3         1 1I7      -0.097100
     37 C55        223.5070   162.6630   234.5320 c3         1 1I7       0.006000
     38 C56        223.5430   164.0550   233.8680 c          1 1I7       0.586100
     39 C57        226.5570   161.2690   236.5740 ce         1 1I7      -0.036600
     40 C58        225.2410   161.9600   236.2500 c          1 1I7       0.630300
     41 C60        226.5830   160.1000   237.2490 c2         1 1I7      -0.353000
     42 N10        230.7290   167.1250   239.3970 ns         1 1I7      -0.497900
     43 N11        227.5650   167.8290   237.5290 ns         1 1I7      -0.483900
     44 N13        226.3820   163.7620   238.9070 na         1 1I7      -0.210700
     45 N14        231.2960   164.4050   239.1460 ns         1 1I7      -0.496900
     46 N15        230.1370   163.6620   236.7430 ns         1 1I7      -0.489900
     47 N16        225.9250   167.2450   235.3200 nc         1 1I7      -0.630000
     48 N17        224.7370   164.7400   233.9290 ns         1 1I7      -0.494900
     49 N18        227.7480   161.9340   236.1800 ns         1 1I7      -0.412100
     50 N19        224.8280   162.0580   234.8970 n          1 1I7      -0.390800
     51 O02        230.0050   166.5270   237.3380 o          1 1I7      -0.629100
     52 O03        230.6390   168.8640   241.6700 os         1 1I7      -0.367100
     53 O04        233.4080   164.8200   238.4270 o          1 1I7      -0.608100
     54 O05        226.2950   169.6390   238.0850 o          1 1I7      -0.617100
     55 O06        230.4140   161.4510   237.1510 o          1 1I7      -0.647100
     56 O07        227.0740   163.9460   235.3310 o          1 1I7      -0.604100
     57 O08        222.5650   164.5230   233.3000 o          1 1I7      -0.615100
     58 O09        224.5240   162.3620   237.1600 o          1 1I7      -0.610100
     59 S01        223.7900   168.4460   234.3540 ss         1 1I7       0.036600
     60 H121       232.7100   164.1170   243.9680 hn         1 1I7       0.355000
     61 H201       232.5230   167.2960   238.3370 h1         1 1I7       0.082700
     62 H212       234.0460   166.9990   240.2320 hc         1 1I7       0.067200
     63 H211       232.9080   168.2810   240.5650 hc         1 1I7       0.067200
     64 H221       228.6830   168.8240   239.0000 h1         1 1I7       0.074700
     65 H231       228.3080   167.2430   240.8270 hc         1 1I7       0.059700
     66 H232       226.7760   167.6970   240.1290 hc         1 1I7       0.059700
     67 H311       233.9910   164.7490   241.8000 h4         1 1I7       0.222000
     68 H331       225.7410   165.7040   238.1410 h4         1 1I7       0.229000
     69 H351       230.5890   165.1050   245.4180 ha         1 1I7       0.120000
     70 H361       229.3530   165.3670   241.7790 ha         1 1I7       0.120000
     71 H371       228.9200   168.7320   243.7790 ha         1 1I7       0.120000
     72 H381       227.1830   161.2590   239.9060 ha         1 1I7       0.117000
     73 H402       230.7420   162.4300   239.6500 h1         1 1I7       0.085200
     74 H401       232.3030   162.5650   238.8090 h1         1 1I7       0.085200
     75 H411       228.9160   166.9660   245.5080 ha         1 1I7       0.116000
     76 H421       230.0030   163.1080   242.6370 ha         1 1I7       0.104000
     77 H431       228.9230   161.0550   241.7040 ha         1 1I7       0.108000
     78 H451       229.9220   162.6460   234.9260 h1         1 1I7       0.079700
     79 H472       229.2310   165.6240   234.9220 hc         1 1I7       0.060200
     80 H471       229.2530   164.5450   233.5330 hc         1 1I7       0.060200
     81 H481       224.1710   166.2860   232.6330 h1         1 1I7       0.081700
     82 H501       224.2110   169.9920   236.2610 h4         1 1I7       0.179000
     83 H523       229.9830   170.6570   240.8200 h1         1 1I7       0.047367
     84 H522       228.7220   169.7170   241.6420 h1         1 1I7       0.047367
     85 H521       229.9380   170.6100   242.5950 h1         1 1I7       0.047367
     86 H532       231.3230   165.8940   233.5680 hc         1 1I7       0.042033
     87 H533       231.7150   165.3370   235.2060 hc         1 1I7       0.042033
     88 H531       231.7390   164.1900   233.8460 hc         1 1I7       0.042033
     89 H543       226.4420   166.9760   231.9740 hc         1 1I7       0.051033
     90 H542       227.1520   165.8030   233.1030 hc         1 1I7       0.051033
     91 H541       226.2070   165.2350   231.7090 hc         1 1I7       0.051033
     92 H552       222.8750   162.7580   235.4230 h1         1 1I7       0.089700
     93 H551       222.9860   161.9900   233.8400 h1         1 1I7       0.089700
     94 H592       225.9010   160.3960   234.1190 h1         1 1I7       0.048367
     95 H593       224.9830   161.3210   232.9060 h1         1 1I7       0.048367
     96 H591       226.4890   161.9950   233.5730 h1         1 1I7       0.048367
     97 H602       227.5190   159.6020   237.5070 ha         1 1I7       0.186000
     98 H2         225.6650   159.6040   237.5670 ha         1 1I7       0.186000
     99 H101       230.4800   167.6120   240.2540 hn         1 1I7       0.347500
    100 H111       227.6700   167.0990   236.8300 hn         1 1I7       0.365500
    101 H131       225.7590   163.1310   238.4030 hn         1 1I7       0.384000
    102 H141       230.4790   164.8300   239.5720 hn         1 1I7       0.345500
    103 H151       230.2790   164.6020   237.1120 hn         1 1I7       0.362500
    104 H171       225.4930   164.3000   234.4550 hn         1 1I7       0.357500
    105 H181       228.5980   161.4340   236.4360 hn         1 1I7       0.351500
    106 C59        225.5970   161.4050   233.8110 c3         1 1I7       0.086300
@<TRIPOS>BOND
     1     1    11 1   
     2     1    13 1   
     3     1    60 1   
     4     2     3 1   
     5     2    12 1   
     6     2    42 1   
     7     2    61 1   
     8     3     5 1   
     9     3    62 1   
    10     3    63 1   
    11     4     8 1   
    12     4    10 1   
    13     4    43 1   
    14     4    64 1   
    15     5     6 1   
    16     5    13 2   
    17     6    11 ar  
    18     6    16 ar  
    19     7     9 1   
    20     7    14 ar  
    21     7    18 ar  
    22     8     9 1   
    23     8    65 1   
    24     8    66 1   
    25     9    15 2   
    26    10    42 1   
    27    10    51 2   
    28    11    17 ar  
    29    12    45 1   
    30    12    53 2   
    31    13    67 1   
    32    14    20 ar  
    33    14    44 1   
    34    15    44 1   
    35    15    68 1   
    36    16    19 ar  
    37    16    52 1   
    38    17    23 ar  
    39    17    69 1   
    40    18    24 ar  
    41    18    70 1   
    42    19    23 ar  
    43    19    71 1   
    44    20    25 ar  
    45    20    72 1   
    46    21    26 1   
    47    21    43 1   
    48    21    54 2   
    49    22    28 1   
    50    22    45 1   
    51    22    73 1   
    52    22    74 1   
    53    23    75 1   
    54    24    25 ar  
    55    24    76 1   
    56    25    77 1   
    57    26    32 2   
    58    26    47 1   
    59    27    29 1   
    60    27    33 1   
    61    27    46 1   
    62    27    78 1   
    63    28    46 1   
    64    28    55 2   
    65    29    35 1   
    66    29    79 1   
    67    29    80 1   
    68    30    31 1   
    69    30    36 1   
    70    30    48 1   
    71    30    81 1   
    72    31    47 2   
    73    31    59 1   
    74    32    59 1   
    75    32    82 1   
    76    33    49 1   
    77    33    56 2   
    78    34    52 1   
    79    34    83 1   
    80    34    84 1   
    81    34    85 1   
    82    35    86 1   
    83    35    87 1   
    84    35    88 1   
    85    36    89 1   
    86    36    90 1   
    87    36    91 1   
    88    37    38 1   
    89    37    50 1   
    90    37    92 1   
    91    37    93 1   
    92    38    48 1   
    93    38    57 2   
    94    39    40 1   
    95    39    41 2   
    96    39    49 1   
    97    40    50 1   
    98    40    58 2   
    99    41    97 1   
   100    41    98 1   
   101    42    99 1   
   102    43   100 1   
   103    44   101 1   
   104    45   102 1   
   105    46   103 1   
   106    48   104 1   
   107    49   105 1   
   108    50   106 1   
   109    94   106 1   
   110    95   106 1   
   111    96   106 1   
@<TRIPOS>SUBSTRUCTURE
     1 1I7         1 TEMP              0 ****  ****    0 ROOT
