@<TRIPOS>MOLECULE
1I8
   83    88     1     0     0
SMALL
bcc


@<TRIPOS>ATOM
      1 C10         93.0610   108.1080    73.8170 c6         1 1I8      -0.037000
      2 C13         92.5850   106.6700    73.5190 c6         1 1I8      -0.111400
      3 C15         90.8040   108.8240    74.8680 c6         1 1I8      -0.070400
      4 C17         95.3800   107.2840    73.0720 c6         1 1I8       0.082500
      5 C20         90.1480   109.5300    76.0500 c6         1 1I8      -0.073900
      6 C21         90.4330   108.8120    77.3620 c6         1 1I8      -0.075400
      7 C24         94.2840   110.8470    72.0380 cc         1 1I8       0.401400
      8 C26         93.1770   112.3550    72.9460 cd         1 1I8       0.513900
      9 C28         97.9450   104.2810    72.7280 c          1 1I8       0.663100
     10 C11         92.3210   108.6960    75.0550 c6         1 1I8      -0.051700
     11 C12         94.5820   108.1190    74.0680 c6         1 1I8      -0.111400
     12 C14         92.5790   107.9370    76.3670 c6         1 1I8      -0.070400
     13 C16         92.7540   108.9310    72.5440 c3         1 1I8       0.055300
     14 C18         93.4930   105.9000    72.5630 c6         1 1I8       0.082500
     15 C19         91.9320   108.6360    77.5600 c6         1 1I8      -0.073900
     16 C23         96.6120   105.1590    74.6150 c3         1 1I8       0.052700
     17 C25         96.8080   104.1580    75.7600 c3         1 1I8      -0.037100
     18 C27         95.8920   104.4640    76.9160 ca         1 1I8      -0.080300
     19 C29         99.1690   104.5690    71.8600 c6         1 1I8       0.090500
     20 C30         98.7460   104.4940    70.3730 c6         1 1I8      -0.042100
     21 C31         96.0930   105.6190    77.6690 ca         1 1I8      -0.111500
     22 C32         94.8210   103.6420    77.2510 ca         1 1I8      -0.111500
     23 C33         99.7240   105.2000    69.4840 ca         1 1I8      -0.081300
     24 C34         99.6690   106.8940    71.2560 c6         1 1I8       0.207100
     25 C35        100.1530   106.4610    69.9030 ca         1 1I8      -0.132300
     26 C36         95.2460   105.9620    78.7120 ca         1 1I8      -0.124500
     27 C37         93.9650   103.9630    78.2960 ca         1 1I8      -0.124500
     28 C38        100.1810   104.6840    68.2790 ca         1 1I8      -0.117000
     29 C39        101.0250   107.1960    69.1120 ca         1 1I8      -0.111000
     30 C40         94.1820   105.1280    79.0130 ca         1 1I8       0.028400
     31 C41        101.0470   105.4260    67.4840 ca         1 1I8      -0.120000
     32 C42        101.4670   106.6830    67.8980 ca         1 1I8      -0.127000
     33 N04         94.8630   105.9240    73.0500 n          1 1I8      -0.450800
     34 N05         93.1790   110.3150    72.5700 na         1 1I8      -0.029400
     35 N06         92.4590   111.2780    73.1540 nc         1 1I8      -0.536800
     36 N07         97.7100   105.1920    73.6790 ns         1 1I8      -0.568900
     37 N08         94.3180   112.1420    72.2580 nd         1 1I8      -0.699000
     38 N09         99.8220   105.8190    72.2290 n7         1 1I8      -0.831200
     39 O02         94.5850   103.9630    74.1320 o          1 1I8      -0.568100
     40 O03         97.2490   103.2940    72.5320 o          1 1I8      -0.591100
     41 CL1         93.1040   105.5540    80.3050 cl         1 1I8      -0.116400
     42 H1          91.5700   106.6850    73.1130 hc         1 1I8       0.059200
     43 H2          92.5350   106.1000    74.4490 hc         1 1I8       0.059200
     44 H3          90.5600   109.3750    73.9590 hc         1 1I8       0.039950
     45 H4          90.3620   107.8280    74.7540 hc         1 1I8       0.039950
     46 H5          96.4380   107.3050    73.3200 h1         1 1I8       0.058200
     47 H6          95.3140   107.6800    72.0560 h1         1 1I8       0.058200
     48 H7          90.5250   110.5580    76.1070 hc         1 1I8       0.041450
     49 H8          89.0700   109.6050    75.8830 hc         1 1I8       0.041450
     50 H9          89.9970   109.3600    78.2020 hc         1 1I8       0.039200
     51 H10         89.9510   107.8290    77.3470 hc         1 1I8       0.039200
     52 H11         95.0180   110.2620    71.5050 h5         1 1I8       0.059100
     53 H12         92.8640   113.3270    73.2970 h5         1 1I8       0.064100
     54 H13         92.7170   109.7100    75.2030 hc         1 1I8       0.060700
     55 H14         94.7960   107.7180    75.0610 hc         1 1I8       0.059200
     56 H15         94.9570   109.1450    74.0840 hc         1 1I8       0.059200
     57 H16         92.1780   106.9210    76.3000 hc         1 1I8       0.039950
     58 H17         93.6460   107.8330    76.5670 hc         1 1I8       0.039950
     59 H18         91.6890   108.9190    72.3230 h1         1 1I8       0.066200
     60 H19         93.2450   108.4860    71.6780 h1         1 1I8       0.066200
     61 H20         93.4860   106.3290    71.5580 h1         1 1I8       0.058200
     62 H21         93.1500   104.8730    72.4660 h1         1 1I8       0.058200
     63 H22         92.1320   108.0630    78.4690 hc         1 1I8       0.041450
     64 H23         92.3980   109.6170    77.7030 hc         1 1I8       0.041450
     65 H24         96.6000   106.1520    75.0720 h1         1 1I8       0.054700
     66 H25         96.6700   103.1360    75.4100 hc         1 1I8       0.070700
     67 H26         97.8450   104.2510    76.0910 hc         1 1I8       0.070700
     68 H27         99.8710   103.7520    72.0490 h1         1 1I8       0.073700
     69 H28         97.7670   104.9720    70.2540 hc         1 1I8       0.071200
     70 H29         98.6180   103.4550    70.0740 hc         1 1I8       0.071200
     71 H30         96.9270   106.2740    77.4440 ha         1 1I8       0.140000
     72 H31         94.6430   102.7360    76.6880 ha         1 1I8       0.140000
     73 H32        100.2160   107.7680    71.6110 h1         1 1I8       0.060200
     74 H33         98.6130   107.1820    71.2160 h1         1 1I8       0.060200
     75 H34         95.4170   106.8670    79.2800 ha         1 1I8       0.147000
     76 H35         93.1370   103.3120    78.5410 ha         1 1I8       0.147000
     77 H36         99.8560   103.7010    67.9560 ha         1 1I8       0.135000
     78 H37        101.3630   108.1700    69.4460 ha         1 1I8       0.131000
     79 H38        101.3970   105.0190    66.5440 ha         1 1I8       0.134000
     80 H39        102.1450   107.2590    67.2820 ha         1 1I8       0.134000
     81 H40         98.4030   105.9260    73.7530 hn         1 1I8       0.345500
     82 H41        100.8080   105.6550    72.3820 hn         1 1I8       0.371800
     83 C22         95.2610   104.9540    73.9100 c          1 1I8       0.665100
@<TRIPOS>BOND
     1     1     2 1   
     2     1    10 1   
     3     1    11 1   
     4     1    13 1   
     5     2    14 1   
     6     2    42 1   
     7     2    43 1   
     8     3     5 1   
     9     3    10 1   
    10     3    44 1   
    11     3    45 1   
    12     4    11 1   
    13     4    33 1   
    14     4    46 1   
    15     4    47 1   
    16     5     6 1   
    17     5    48 1   
    18     5    49 1   
    19     6    15 1   
    20     6    50 1   
    21     6    51 1   
    22     7    34 1   
    23     7    37 2   
    24     7    52 1   
    25     8    35 2   
    26     8    37 1   
    27     8    53 1   
    28     9    19 1   
    29     9    36 1   
    30     9    40 2   
    31    10    12 1   
    32    10    54 1   
    33    11    55 1   
    34    11    56 1   
    35    12    15 1   
    36    12    57 1   
    37    12    58 1   
    38    13    34 1   
    39    13    59 1   
    40    13    60 1   
    41    14    33 1   
    42    14    61 1   
    43    14    62 1   
    44    15    63 1   
    45    15    64 1   
    46    16    17 1   
    47    16    36 1   
    48    16    65 1   
    49    16    83 1   
    50    17    18 1   
    51    17    66 1   
    52    17    67 1   
    53    18    21 ar  
    54    18    22 ar  
    55    19    20 1   
    56    19    38 1   
    57    19    68 1   
    58    20    23 1   
    59    20    69 1   
    60    20    70 1   
    61    21    26 ar  
    62    21    71 1   
    63    22    27 ar  
    64    22    72 1   
    65    23    25 ar  
    66    23    28 ar  
    67    24    25 1   
    68    24    38 1   
    69    24    73 1   
    70    24    74 1   
    71    25    29 ar  
    72    26    30 ar  
    73    26    75 1   
    74    27    30 ar  
    75    27    76 1   
    76    28    31 ar  
    77    28    77 1   
    78    29    32 ar  
    79    29    78 1   
    80    30    41 1   
    81    31    32 ar  
    82    31    79 1   
    83    32    80 1   
    84    33    83 1   
    85    34    35 1   
    86    36    81 1   
    87    38    82 1   
    88    39    83 2   
@<TRIPOS>SUBSTRUCTURE
     1 1I8         1 TEMP              0 ****  ****    0 ROOT
