@<TRIPOS>MOLECULE
1I8
   83    88     1     0     0
SMALL
No Charge or Current Charge


@<TRIPOS>ATOM
      1 C10         93.0610   108.3680    74.2940 c6         1 1I8      -0.037000
      2 C13         92.6950   106.9860    73.6650 c6         1 1I8      -0.111400
      3 C15         90.5510   109.1910    74.4350 c6         1 1I8      -0.070400
      4 C17         95.5190   107.4960    74.3330 c6         1 1I8       0.082500
      5 C20         89.4660   109.8360    75.3310 c6         1 1I8      -0.073900
      6 C21         89.1650   108.9570    76.5640 c6         1 1I8      -0.075400
      7 C24         94.9260   111.2530    74.0020 cc         1 1I8       0.401400
      8 C26         93.5150   112.8510    73.8560 cd         1 1I8       0.513900
      9 C28         99.8780   104.6540    73.2240 c          1 1I8       0.596100
     10 C11         91.8830   108.9240    75.2190 c6         1 1I8      -0.051700
     11 C12         94.3470   108.1030    75.1400 c6         1 1I8      -0.111400
     12 C14         91.5520   108.0460    76.4770 c6         1 1I8      -0.070400
     13 C16         93.3780   109.4040    73.1380 c3         1 1I8       0.084600
     14 C18         93.8440   106.3620    72.8340 c6         1 1I8       0.082500
     15 C19         90.4560   108.6840    77.3660 c6         1 1I8      -0.073900
     16 C23         97.4590   105.1640    73.8340 c3         1 1I8       0.052700
     17 C25         97.1760   104.1490    74.9760 c3         1 1I8      -0.037100
     18 C27         96.2420   104.6660    76.0640 ca         1 1I8      -0.080300
     19 C29        100.8390   104.0860    72.1060 c6         1 1I8       0.090500
     20 C30        100.1080   103.3290    70.9600 c6         1 1I8      -0.042100
     21 C31         96.7390   105.5010    77.0850 ca         1 1I8      -0.093500
     22 C32         94.8810   104.3020    76.0680 ca         1 1I8      -0.093500
     23 C33         99.4560   104.2720    69.9440 ca         1 1I8      -0.081300
     24 C34        100.9310   106.1970    70.8060 c6         1 1I8       0.207100
     25 C35         99.8610   105.6260    69.8620 ca         1 1I8      -0.132300
     26 C36         95.8810   105.9690    78.0960 ca         1 1I8      -0.106500
     27 C37         94.0240   104.7690    77.0800 ca         1 1I8      -0.106500
     28 C38         98.4580   103.7860    69.0790 ca         1 1I8      -0.099000
     29 C39         99.2500   106.4760    68.9200 ca         1 1I8      -0.093000
     30 C40         94.5260   105.6000    78.0940 ca         1 1I8       0.120000
     31 C41         97.8560   104.6400    68.1400 ca         1 1I8      -0.102000
     32 C42         98.2520   105.9850    68.0620 ca         1 1I8      -0.109000
     33 N04         95.1550   106.2820    73.5400 n          1 1I8      -0.383800
     34 N05         93.7180   110.7870    73.5420 na         1 1I8      -0.058700
     35 N06         92.8210   111.8040    73.4300 nc         1 1I8      -0.536800
     36 N07         98.5240   104.6550    72.9430 ns         1 1I8      -0.501900
     37 N08         94.8200   112.5520    74.2150 nd         1 1I8      -0.699000
     38 N09        101.7180   105.1340    71.4780 n7         1 1I8      -0.886400
     39 O02         96.0110   104.9230    71.9010 o          1 1I8      -0.568100
     40 O03        100.3050   105.0980    74.2840 o          1 1I8      -0.591100
     41 Cl1         93.4550   106.1820    79.3620 cl         1 1I8      -0.208000
     42 H1          91.8110   107.0730    73.0200 hc         1 1I8       0.059200
     43 H2          92.4280   106.2680    74.4510 hc         1 1I8       0.059200
     44 H3          90.7190   109.8550    73.5800 hc         1 1I8       0.039950
     45 H4          90.1540   108.2530    74.0260 hc         1 1I8       0.039950
     46 H5          96.3120   107.2590    75.0510 h1         1 1I8       0.058200
     47 H6          95.9340   108.2500    73.6500 h1         1 1I8       0.058200
     48 H7          89.7970   110.8330    75.6560 hc         1 1I8       0.041450
     49 H8          88.5460   109.9880    74.7500 hc         1 1I8       0.041450
     50 H9          88.4230   109.4520    77.2060 hc         1 1I8       0.039200
     51 H10         88.7180   108.0060    76.2430 hc         1 1I8       0.039200
     52 H11         95.7980   110.6260    74.1500 h5         1 1I8       0.059100
     53 H12         93.1190   113.8590    73.9170 h5         1 1I8       0.064100
     54 H13         92.2190   109.8940    75.6130 hc         1 1I8       0.060700
     55 H14         94.1330   107.3810    75.9340 hc         1 1I8       0.059200
     56 H15         94.6760   109.0160    75.6540 hc         1 1I8       0.059200
     57 H16         91.2260   107.0420    76.1760 hc         1 1I8       0.039950
     58 H17         92.4370   107.9150    77.1090 hc         1 1I8       0.039950
     59 H18         92.5210   109.4470    72.4550 h1         1 1I8       0.066200
     60 H19         94.2130   109.0360    72.5320 h1         1 1I8       0.066200
     61 H20         93.9790   106.9310    71.9030 h1         1 1I8       0.058200
     62 H21         93.5370   105.3490    72.5370 h1         1 1I8       0.058200
     63 H22         90.2340   108.0220    78.2140 hc         1 1I8       0.041450
     64 H23         90.8300   109.6240    77.7950 hc         1 1I8       0.041450
     65 H24         97.8220   106.1030    74.2660 h1         1 1I8       0.054700
     66 H25         96.7740   103.2270    74.5370 hc         1 1I8       0.070700
     67 H26         98.1270   103.8610    75.4390 hc         1 1I8       0.070700
     68 H27        101.4730   103.3570    72.6320 h1         1 1I8       0.073700
     69 H28         99.3720   102.6250    71.3730 hc         1 1I8       0.071200
     70 H29        100.8390   102.7040    70.4290 hc         1 1I8       0.071200
     71 H30         97.7880   105.7870    77.0950 ha         1 1I8       0.122000
     72 H31         94.4830   103.6590    75.2850 ha         1 1I8       0.122000
     73 H32        101.6100   106.8530    70.2380 h1         1 1I8       0.060200
     74 H33        100.4340   106.8250    71.5610 h1         1 1I8       0.060200
     75 H34         96.2660   106.6130    78.8820 ha         1 1I8       0.129000
     76 H35         92.9740   104.4890    77.0780 ha         1 1I8       0.129000
     77 H36         98.1470   102.7450    69.1330 ha         1 1I8       0.117000
     78 H37         99.5470   107.5210    68.8550 ha         1 1I8       0.113000
     79 H38         97.0840   104.2600    67.4750 ha         1 1I8       0.116000
     80 H39         97.7850   106.6480    67.3360 ha         1 1I8       0.116000
     81 H40         98.2550   104.3420    72.0150 hn         1 1I8       0.345500
     82 H41        102.2970   104.6760    70.7620 hn         1 1I8       0.427000
     83 C22         96.1740   105.4620    72.9920 c          1 1I8       0.598100
@<TRIPOS>BOND
     1     1     2 1   
     2     1    10 1   
     3     1    11 1   
     4     1    13 1   
     5     2    14 1   
     6     2    42 1   
     7     2    43 1   
     8     3     5 1   
     9     3    10 1   
    10     3    44 1   
    11     3    45 1   
    12     4    11 1   
    13     4    33 1   
    14     4    46 1   
    15     4    47 1   
    16     5     6 1   
    17     5    48 1   
    18     5    49 1   
    19     6    15 1   
    20     6    50 1   
    21     6    51 1   
    22     7    34 1   
    23     7    37 2   
    24     7    52 1   
    25     8    35 2   
    26     8    37 1   
    27     8    53 1   
    28     9    19 1   
    29     9    36 1   
    30     9    40 2   
    31    10    12 1   
    32    10    54 1   
    33    11    55 1   
    34    11    56 1   
    35    12    15 1   
    36    12    57 1   
    37    12    58 1   
    38    13    34 1   
    39    13    59 1   
    40    13    60 1   
    41    14    33 1   
    42    14    61 1   
    43    14    62 1   
    44    15    63 1   
    45    15    64 1   
    46    16    17 1   
    47    16    36 1   
    48    16    65 1   
    49    16    83 1   
    50    17    18 1   
    51    17    66 1   
    52    17    67 1   
    53    18    21 ar  
    54    18    22 ar  
    55    19    20 1   
    56    19    38 1   
    57    19    68 1   
    58    20    23 1   
    59    20    69 1   
    60    20    70 1   
    61    21    26 ar  
    62    21    71 1   
    63    22    27 ar  
    64    22    72 1   
    65    23    25 ar  
    66    23    28 ar  
    67    24    25 1   
    68    24    38 1   
    69    24    73 1   
    70    24    74 1   
    71    25    29 ar  
    72    26    30 ar  
    73    26    75 1   
    74    27    30 ar  
    75    27    76 1   
    76    28    31 ar  
    77    28    77 1   
    78    29    32 ar  
    79    29    78 1   
    80    30    41 1   
    81    31    32 ar  
    82    31    79 1   
    83    32    80 1   
    84    33    83 1   
    85    34    35 1   
    86    36    81 1   
    87    38    82 1   
    88    39    83 2   
@<TRIPOS>SUBSTRUCTURE
     1 1I8         1 TEMP              0 ****  ****    0 ROOT
