@<TRIPOS>MOLECULE
1I9
   71    76     1     0     0
SMALL
abcg2


@<TRIPOS>ATOM
      1 C1          -3.8590    16.8760    -0.7840 c3         1 1I9      -0.086100
      2 C2          -4.4640    15.4800    -0.8390 c6         1 1I9      -0.063700
      3 C3          -4.2480    14.7230     0.4660 c6         1 1I9      -0.070900
      4 C4          -4.8480    13.3230     0.4190 c6         1 1I9      -0.073400
      5 C5          -6.3400    13.3380     0.0700 c6         1 1I9      -0.072700
      6 C6          -6.5690    14.1290    -1.2180 c6         1 1I9      -0.073400
      7 C7          -5.9550    15.5220    -1.1550 c6         1 1I9      -0.070900
      8 C8          -6.8440    11.8860    -0.0320 c3         1 1I9       0.085300
      9 C12         -8.2520    11.3030    -2.0530 ca         1 1I9      -0.114200
     10 C15         -9.1580    10.6360    -4.5100 ca         1 1I9       0.286700
     11 C16        -10.0860    11.1540    -3.6280 ca         1 1I9      -0.063000
     12 C17         -9.6060    11.4990    -2.3700 ca         1 1I9       0.088400
     13 C19         -9.3480    12.2170    -0.3950 cc         1 1I9       0.443800
     14 C24        -10.4180    10.5970     3.8070 c3         1 1I9      -0.094100
     15 C27        -10.1920    15.2590     0.4550 cx         1 1I9      -0.126400
     16 C30        -10.7220     9.9270    -7.7000 c          1 1I9       0.655100
     17 C34         -5.9600    10.4450    -2.7930 cp         1 1I9      -0.187500
     18 C35         -4.9780    11.2880    -3.2950 ca         1 1I9      -0.041000
     19 C36         -3.6560    10.9670    -3.0430 ca         1 1I9       0.053000
     20 C38         -3.3520     9.8120    -2.3350 ca         1 1I9       0.354900
     21 C40         -5.5620     9.3050    -2.1020 ca         1 1I9       0.357900
     22 C10         -6.8900    11.1390     1.2960 c3         1 1I9      -0.102100
     23 N11         -8.1120    11.7750    -0.7700 na         1 1I9      -0.141600
     24 C13         -7.3990    10.7400    -3.0140 cp         1 1I9       0.423500
     25 N14         -7.8690    10.4360    -4.2040 nb         1 1I9      -0.620000
     26 N18        -10.2580    12.0600    -1.3190 nd         1 1I9      -0.557100
     27 C20         -9.6780    12.7840     0.9580 c3         1 1I9       0.198000
     28 O22        -10.1310    11.6840     1.7110 os         1 1I9      -0.449000
     29 C25        -10.6850    13.8970     0.8390 cx         1 1I9      -0.152700
     30 C26        -10.6820    15.0070     1.8460 cx         1 1I9      -0.126400
     31 C28         -9.5250    10.2660    -5.8780 cc         1 1I9       0.323900
     32 N29        -10.7780    10.3470    -6.4040 ns         1 1I9      -0.564900
     33 O32         -9.4260     9.6060    -7.8990 os         1 1I9      -0.229100
     34 N33         -8.6860     9.8240    -6.7490 nd         1 1I9      -0.267700
     35 CL37        -2.3880    11.9990    -3.5880 cl         1 1I9      -0.174000
     36 N39         -4.2920     8.9960    -1.8830 nb         1 1I9      -0.657000
     37 H1          -2.7880    16.8360    -0.5780 hc         1 1I9       0.034700
     38 H2          -3.9970    17.4090    -1.7260 hc         1 1I9       0.034700
     39 H3          -4.3250    17.4710     0.0050 hc         1 1I9       0.034700
     40 H4          -3.9660    14.9160    -1.6400 hc         1 1I9       0.049700
     41 H5          -3.1800    14.6530     0.6910 hc         1 1I9       0.042700
     42 H6          -4.7020    15.2900     1.2880 hc         1 1I9       0.042700
     43 H7          -4.6810    12.8280     1.3780 hc         1 1I9       0.043950
     44 H8          -4.3160    12.7310    -0.3350 hc         1 1I9       0.043950
     45 H9          -6.8700    13.8500     0.8830 hc         1 1I9       0.052700
     46 H10         -7.6370    14.2210    -1.4290 hc         1 1I9       0.043950
     47 H11         -6.1310    13.5840    -2.0620 hc         1 1I9       0.043950
     48 H12         -6.1280    16.0370    -2.1040 hc         1 1I9       0.042700
     49 H13         -6.4660    16.1120    -0.3840 hc         1 1I9       0.042700
     50 H14         -6.1270    11.3600    -0.6560 h1         1 1I9       0.070700
     51 H15        -11.1270    11.3090    -3.8770 ha         1 1I9       0.139000
     52 H16         -9.3260    12.4210     3.4680 h1         1 1I9       0.024700
     53 H17        -11.0740    12.5890     3.3230 h1         1 1I9       0.024700
     54 H18        -10.5180    10.7610     4.8790 hc         1 1I9       0.045700
     55 H19        -11.3180    10.0850     3.4630 hc         1 1I9       0.045700
     56 H20         -9.5640     9.9390     3.6460 hc         1 1I9       0.045700
     57 H21         -9.1250    15.3910     0.3130 hc         1 1I9       0.073200
     58 H22        -10.8040    15.8490    -0.2140 hc         1 1I9       0.073200
     59 H23         -5.2400    12.1800    -3.8490 ha         1 1I9       0.144000
     60 H24         -2.3210     9.5460    -2.1330 h4         1 1I9       0.038100
     61 H25         -6.3070     8.6230    -1.7060 h4         1 1I9       0.033100
     62 H26         -5.8750    10.9470     1.6380 hc         1 1I9       0.053033
     63 H27         -7.3960    11.6970     2.0820 hc         1 1I9       0.053033
     64 H28         -7.3810    10.1740     1.1810 hc         1 1I9       0.053033
     65 H29         -8.7710    13.2070     1.4120 h1         1 1I9       0.040700
     66 H30        -11.6480    13.6000     0.4400 hc         1 1I9       0.111700
     67 H31         -9.9490    14.9760     2.6430 hc         1 1I9       0.073200
     68 H32        -11.6380    15.4210     2.1390 hc         1 1I9       0.073200
     69 H33        -11.6250    10.6520    -5.9480 hn         1 1I9       0.480000
     70 O31        -11.5800     9.8370    -8.5330 o          1 1I9      -0.501000
     71 C23        -10.2340    11.9220     3.1030 c3         1 1I9       0.161600
@<TRIPOS>BOND
     1     1     2 1   
     2     1    37 1   
     3     1    38 1   
     4     1    39 1   
     5     2     3 1   
     6     2     7 1   
     7     2    40 1   
     8     3     4 1   
     9     3    41 1   
    10     3    42 1   
    11     4     5 1   
    12     4    43 1   
    13     4    44 1   
    14     5     6 1   
    15     5     8 1   
    16     5    45 1   
    17     6     7 1   
    18     6    46 1   
    19     6    47 1   
    20     7    48 1   
    21     7    49 1   
    22     8    22 1   
    23     8    23 1   
    24     8    50 1   
    25     9    12 ar  
    26     9    23 1   
    27     9    24 ar  
    28    10    11 ar  
    29    10    25 ar  
    30    10    31 1   
    31    11    12 ar  
    32    11    51 1   
    33    12    26 1   
    34    13    23 1   
    35    13    26 2   
    36    13    27 1   
    37    14    54 1   
    38    14    55 1   
    39    14    56 1   
    40    14    71 1   
    41    15    29 1   
    42    15    30 1   
    43    15    57 1   
    44    15    58 1   
    45    16    32 1   
    46    16    33 1   
    47    16    70 2   
    48    17    18 ar  
    49    17    21 ar  
    50    17    24 1   
    51    18    19 ar  
    52    18    59 1   
    53    19    20 ar  
    54    19    35 1   
    55    20    36 ar  
    56    20    60 1   
    57    21    36 ar  
    58    21    61 1   
    59    22    62 1   
    60    22    63 1   
    61    22    64 1   
    62    24    25 ar  
    63    27    28 1   
    64    27    29 1   
    65    27    65 1   
    66    28    71 1   
    67    29    30 1   
    68    29    66 1   
    69    30    67 1   
    70    30    68 1   
    71    31    32 1   
    72    31    34 2   
    73    32    69 1   
    74    33    34 1   
    75    52    71 1   
    76    53    71 1   
@<TRIPOS>SUBSTRUCTURE
     1 1I9         1 TEMP              0 ****  ****    0 ROOT
