@<TRIPOS>MOLECULE
1I9
   71    76     1     0     0
SMALL
No Charge or Current Charge


@<TRIPOS>ATOM
      1 C1          -4.3520    17.4700    -0.7640 c3         1 1I9      -0.086100
      2 C2          -4.7120    15.9640    -0.8600 c6         1 1I9      -0.063700
      3 C3          -4.4740    15.2350     0.4870 c6         1 1I9      -0.070900
      4 C4          -4.8260    13.7310     0.3880 c6         1 1I9      -0.073400
      5 C5          -6.2960    13.5030    -0.0820 c6         1 1I9      -0.072700
      6 C6          -6.5340    14.2570    -1.4280 c6         1 1I9      -0.073400
      7 C7          -6.1760    15.7590    -1.3260 c6         1 1I9      -0.070900
      8 C8          -6.6460    11.9730    -0.1980 c3         1 1I9       0.085300
      9 C12         -8.1800    11.3350    -2.1240 ca         1 1I9      -0.114200
     10 C15         -8.9740    10.8550    -4.6780 ca         1 1I9       0.286700
     11 C16         -9.8920    11.4320    -3.7650 ca         1 1I9      -0.063000
     12 C17         -9.4470    11.6620    -2.4610 ca         1 1I9       0.088400
     13 C19         -9.2420    12.1630    -0.3640 cc         1 1I9       0.443800
     14 C24        -10.7450    10.4050     3.8190 c3         1 1I9      -0.094100
     15 C27        -10.0740    15.2030     0.6460 cx         1 1I9      -0.126400
     16 C30        -10.7630    10.1610    -7.7700 c          1 1I9       0.655100
     17 C34         -5.9890    10.0600    -2.6950 cp         1 1I9      -0.187500
     18 C35         -4.8100    10.3650    -3.4180 ca         1 1I9      -0.041000
     19 C36         -3.6110     9.7330    -3.0570 ca         1 1I9       0.053000
     20 C38         -3.6240     8.8060    -1.9960 ca         1 1I9       0.354900
     21 C40         -5.9000     9.1010    -1.6590 ca         1 1I9       0.357900
     22 C10         -6.4470    11.1560     1.1040 c3         1 1I9      -0.102100
     23 N11         -7.9810    11.6910    -0.8050 na         1 1I9      -0.141600
     24 C13         -7.2930    10.6880    -3.0260 cp         1 1I9       0.423500
     25 N14         -7.7010    10.5090    -4.3060 nb         1 1I9      -0.620000
     26 N18        -10.1450    12.1690    -1.3780 nd         1 1I9      -0.557100
     27 C20         -9.5550    12.6400     1.0560 c3         1 1I9       0.198000
     28 O22        -10.1480    11.5470     1.7970 os         1 1I9      -0.449000
     29 C25        -10.5260    13.8260     1.0810 cx         1 1I9      -0.152700
     30 C26        -10.3910    14.9380     2.0990 cx         1 1I9      -0.126400
     31 C28         -9.3780    10.6320    -6.0840 cc         1 1I9       0.323900
     32 N29        -10.6350    10.2810    -6.4480 ns         1 1I9      -0.564900
     33 O32         -9.5160    10.4680    -8.2650 os         1 1I9      -0.229100
     34 N33         -8.6180    10.7770    -7.1590 nd         1 1I9      -0.267700
     35 Cl37        -2.1190    10.0990    -3.9210 cl         1 1I9      -0.174000
     36 N39         -4.7470     8.4870    -1.3040 nb         1 1I9      -0.657000
     37 H1          -3.3050    17.6080    -0.4670 hc         1 1I9       0.034700
     38 H2          -4.4900    17.9720    -1.7290 hc         1 1I9       0.034700
     39 H3          -4.9790    17.9840    -0.0260 hc         1 1I9       0.034700
     40 H4          -4.0400    15.5330    -1.6160 hc         1 1I9       0.049700
     41 H5          -3.4250    15.3460     0.7920 hc         1 1I9       0.042700
     42 H6          -5.0790    15.7020     1.2770 hc         1 1I9       0.042700
     43 H7          -4.6630    13.2740     1.3730 hc         1 1I9       0.043950
     44 H8          -4.1300    13.2360    -0.3040 hc         1 1I9       0.043950
     45 H9          -6.9570    13.9410     0.6750 hc         1 1I9       0.052700
     46 H10         -7.5840    14.1740    -1.7360 hc         1 1I9       0.043950
     47 H11         -5.9390    13.7910    -2.2260 hc         1 1I9       0.043950
     48 H12         -6.3290    16.2380    -2.3030 hc         1 1I9       0.042700
     49 H13         -6.8630    16.2540    -0.6260 hc         1 1I9       0.042700
     50 H14         -5.8850    11.6030    -0.8850 h1         1 1I9       0.070700
     51 H15        -10.9000    11.7020    -4.0620 ha         1 1I9       0.139000
     52 H16         -9.1660    11.8730     3.6220 h1         1 1I9       0.024700
     53 H17        -10.8150    12.5450     3.5220 h1         1 1I9       0.024700
     54 H18        -10.7850    10.4740     4.9120 hc         1 1I9       0.045700
     55 H19        -11.7610    10.2240     3.4480 hc         1 1I9       0.045700
     56 H20        -10.1140     9.5500     3.5510 hc         1 1I9       0.045700
     57 H21         -9.0310    15.3410     0.3750 hc         1 1I9       0.073200
     58 H22        -10.7740    15.8090     0.0760 hc         1 1I9       0.073200
     59 H23         -4.8280    11.0830    -4.2350 ha         1 1I9       0.144000
     60 H24         -2.7090     8.3000    -1.6920 h4         1 1I9       0.038100
     61 H25         -6.7870     8.8200    -1.0930 h4         1 1I9       0.033100
     62 H26         -5.3830    11.0770     1.3560 hc         1 1I9       0.053033
     63 H27         -6.9610    11.6140     1.9560 hc         1 1I9       0.053033
     64 H28         -6.8290    10.1360     0.9860 hc         1 1I9       0.053033
     65 H29         -8.6250    12.9520     1.5400 h1         1 1I9       0.040700
     66 H30        -11.5360    13.5380     0.7930 hc         1 1I9       0.111700
     67 H31         -9.5590    14.8970     2.7980 hc         1 1I9       0.073200
     68 H32        -11.3050    15.3660     2.5060 hc         1 1I9       0.073200
     69 H33        -11.4060    10.0810    -5.8240 hn         1 1I9       0.480000
     70 O31        -11.7640     9.8480    -8.3920 o          1 1I9      -0.501000
     71 C23        -10.1760    11.7030     3.2270 c3         1 1I9       0.161600
@<TRIPOS>BOND
     1     1     2 1   
     2     1    37 1   
     3     1    38 1   
     4     1    39 1   
     5     2     3 1   
     6     2     7 1   
     7     2    40 1   
     8     3     4 1   
     9     3    41 1   
    10     3    42 1   
    11     4     5 1   
    12     4    43 1   
    13     4    44 1   
    14     5     6 1   
    15     5     8 1   
    16     5    45 1   
    17     6     7 1   
    18     6    46 1   
    19     6    47 1   
    20     7    48 1   
    21     7    49 1   
    22     8    22 1   
    23     8    23 1   
    24     8    50 1   
    25     9    12 ar  
    26     9    23 1   
    27     9    24 ar  
    28    10    11 ar  
    29    10    25 ar  
    30    10    31 1   
    31    11    12 ar  
    32    11    51 1   
    33    12    26 1   
    34    13    23 1   
    35    13    26 2   
    36    13    27 1   
    37    14    54 1   
    38    14    55 1   
    39    14    56 1   
    40    14    71 1   
    41    15    29 1   
    42    15    30 1   
    43    15    57 1   
    44    15    58 1   
    45    16    32 1   
    46    16    33 1   
    47    16    70 2   
    48    17    18 ar  
    49    17    21 ar  
    50    17    24 1   
    51    18    19 ar  
    52    18    59 1   
    53    19    20 ar  
    54    19    35 1   
    55    20    36 ar  
    56    20    60 1   
    57    21    36 ar  
    58    21    61 1   
    59    22    62 1   
    60    22    63 1   
    61    22    64 1   
    62    24    25 ar  
    63    27    28 1   
    64    27    29 1   
    65    27    65 1   
    66    28    71 1   
    67    29    30 1   
    68    29    66 1   
    69    30    67 1   
    70    30    68 1   
    71    31    32 1   
    72    31    34 2   
    73    32    69 1   
    74    33    34 1   
    75    52    71 1   
    76    53    71 1   
@<TRIPOS>SUBSTRUCTURE
     1 1I9         1 TEMP              0 ****  ****    0 ROOT
