@<TRIPOS>MOLECULE
1IA
   34    35     1     0     0
SMALL
No Charge or Current Charge


@<TRIPOS>ATOM
      1 C02         -7.4680   -49.7150   132.3890 ca         1 1IA       0.444900
      2 C04         -6.2100   -51.5620   131.8920 ca         1 1IA       0.185900
      3 C06         -5.2180   -49.5210   131.6170 ca         1 1IA       0.161500
      4 C07         -6.3690   -48.9000   132.0380 ca         1 1IA      -0.072600
      5 C09         -4.9900   -47.2900   131.6230 cc         1 1IA       0.432700
      6 C12         -2.1220   -47.5050   130.5550 c3         1 1IA       0.181800
      7 C14         -1.8790   -45.7510   128.7490 c3         1 1IA       0.107500
      8 C15         -2.5410   -45.4330   127.3890 c3         1 1IA      -0.365400
      9 C20         -1.7960   -44.4610   129.7130 c          1 1IA       0.719000
     10 N01         -8.6550   -49.2120   132.8260 nv         1 1IA      -1.091900
     11 N03         -7.3910   -51.0540   132.3200 nb         1 1IA      -0.323000
     12 N05         -5.1070   -50.8620   131.5340 nb         1 1IA      -0.173000
     13 N08         -6.2500   -47.5020   132.0570 nd         1 1IA      -0.593100
     14 N10         -4.3450   -48.5030   131.3580 na         1 1IA      -0.261300
     15 N13         -2.5900   -46.9510   129.2680 n7         1 1IA      -0.881400
     16 O17         -4.9610   -45.1390   126.2050 o          1 1IA      -0.947167
     17 O18         -4.3280   -43.4090   127.7970 o          1 1IA      -0.947167
     18 O19         -4.9790   -45.6430   128.5970 o          1 1IA      -0.947167
     19 O21         -2.5880   -44.3330   130.6420 o          1 1IA      -0.773500
     20 O22         -0.8310   -43.7140   129.5850 o          1 1IA      -0.773500
     21 P16         -4.2980   -44.8730   127.5150 p5         1 1IA       1.316500
     22 H1          -6.1390   -52.6460   131.8320 h5         1 1IA       0.019100
     23 H2          -4.5040   -46.3280   131.5120 h5         1 1IA       0.049800
     24 H3          -2.9130   -49.4930   130.1740 h1         1 1IA       0.027200
     25 H4          -2.4390   -49.2040   131.8530 h1         1 1IA       0.027200
     26 H5          -1.0690   -47.8010   130.4610 h1         1 1IA       0.000700
     27 H6          -2.1780   -46.7580   131.3560 h1         1 1IA       0.000700
     28 H7          -0.8440   -46.0540   128.5370 h1         1 1IA      -0.050300
     29 H8          -2.4980   -46.3140   126.7360 hc         1 1IA      -0.004800
     30 H9          -1.9690   -44.6450   126.8860 hc         1 1IA      -0.004800
     31 H10         -9.2860   -49.8370   133.3210 hn         1 1IA       0.480000
     32 H11         -8.6740   -48.2290   133.0880 hn         1 1IA       0.480000
     33 H12         -3.5780   -46.6340   129.3530 hn         1 1IA       0.493000
     34 C11         -2.9360   -48.7530   130.9850 c3         1 1IA       0.079600
@<TRIPOS>BOND
     1     1     4 ar  
     2     1    10 1   
     3     1    11 ar  
     4     2    11 ar  
     5     2    12 ar  
     6     2    22 1   
     7     3     4 ar  
     8     3    12 ar  
     9     3    14 1   
    10     4    13 1   
    11     5    13 2   
    12     5    14 1   
    13     5    23 1   
    14     6    15 1   
    15     6    26 1   
    16     6    27 1   
    17     6    34 1   
    18     7     8 1   
    19     7     9 1   
    20     7    15 1   
    21     7    28 1   
    22     8    21 1   
    23     8    29 1   
    24     8    30 1   
    25     9    19 1   
    26     9    20 1   
    27    10    31 1   
    28    10    32 1   
    29    14    34 1   
    30    15    33 1   
    31    16    21 1   
    32    17    21 1   
    33    18    21 1   
    34    24    34 1   
    35    25    34 1   
@<TRIPOS>SUBSTRUCTURE
     1 1IA         1 TEMP              0 ****  ****    0 ROOT
