@<TRIPOS>MOLECULE
1IA
   34    35     1     0     0
SMALL
abcg2


@<TRIPOS>ATOM
      1 C02         -7.2240   -48.9250   131.8470 ca         1 1IA       0.444900
      2 C04         -6.2220   -50.3040   130.3030 ca         1 1IA       0.185900
      3 C06         -4.8760   -49.0680   131.5210 ca         1 1IA       0.161500
      4 C07         -5.9360   -48.4980   132.2140 ca         1 1IA      -0.072600
      5 C09         -4.1870   -47.6270   133.0020 cc         1 1IA       0.432700
      6 C12         -1.8980   -47.4460   130.8220 c3         1 1IA       0.181800
      7 C14         -2.3510   -46.0000   128.9230 c3         1 1IA       0.107500
      8 C15         -2.9840   -46.0210   127.5220 c3         1 1IA      -0.365400
      9 C20         -2.7180   -44.7090   129.7020 c          1 1IA       0.719000
     10 N01         -8.3320   -48.4470   132.4200 nv         1 1IA      -1.091900
     11 N03         -7.3300   -49.8390   130.8770 nb         1 1IA      -0.323000
     12 N05         -4.9670   -49.9830   130.5570 nb         1 1IA      -0.173000
     13 N08         -5.4820   -47.5980   133.1420 nd         1 1IA      -0.593100
     14 N10         -3.7560   -48.4980   132.0450 na         1 1IA      -0.261300
     15 N13         -2.6380   -47.2520   129.6010 n7         1 1IA      -0.881400
     16 O17         -5.0850   -46.4290   125.8960 o          1 1IA      -0.947167
     17 O18         -5.3020   -44.5710   127.6530 o          1 1IA      -0.947167
     18 O19         -5.3870   -47.0420   128.3780 o          1 1IA      -0.947167
     19 O21         -3.5190   -44.7950   130.6580 o          1 1IA      -0.773500
     20 O22         -2.1620   -43.6630   129.3020 o          1 1IA      -0.773500
     21 P16         -4.8560   -46.0110   127.3590 p5         1 1IA       1.316500
     22 H1          -6.3780   -51.0440   129.5250 h5         1 1IA       0.019100
     23 H2          -3.4870   -47.0360   133.5750 h5         1 1IA       0.049800
     24 H3          -2.3590   -49.5540   130.9600 h1         1 1IA       0.027200
     25 H4          -1.7500   -48.8480   132.4540 h1         1 1IA       0.027200
     26 H5          -0.8430   -47.6220   130.5800 h1         1 1IA       0.000700
     27 H6          -1.9140   -46.5820   131.5010 h1         1 1IA       0.000700
     28 H7          -1.2600   -45.9660   128.7830 h1         1 1IA      -0.050300
     29 H8          -2.6040   -46.9180   127.0180 hc         1 1IA      -0.004800
     30 H9          -2.5930   -45.1730   126.9500 hc         1 1IA      -0.004800
     31 H10         -9.2330   -48.8090   132.1600 hn         1 1IA       0.480000
     32 H11         -8.2810   -47.7930   133.1810 hn         1 1IA       0.480000
     33 H12         -3.6420   -47.2920   129.7420 hn         1 1IA       0.493000
     34 C11         -2.3860   -48.6640   131.5880 c3         1 1IA       0.079600
@<TRIPOS>BOND
     1     1     4 ar  
     2     1    10 1   
     3     1    11 ar  
     4     2    11 ar  
     5     2    12 ar  
     6     2    22 1   
     7     3     4 ar  
     8     3    12 ar  
     9     3    14 1   
    10     4    13 1   
    11     5    13 2   
    12     5    14 1   
    13     5    23 1   
    14     6    15 1   
    15     6    26 1   
    16     6    27 1   
    17     6    34 1   
    18     7     8 1   
    19     7     9 1   
    20     7    15 1   
    21     7    28 1   
    22     8    21 1   
    23     8    29 1   
    24     8    30 1   
    25     9    19 1   
    26     9    20 1   
    27    10    31 1   
    28    10    32 1   
    29    14    34 1   
    30    15    33 1   
    31    16    21 1   
    32    17    21 1   
    33    18    21 1   
    34    24    34 1   
    35    25    34 1   
@<TRIPOS>SUBSTRUCTURE
     1 1IA         1 TEMP              0 ****  ****    0 ROOT
