@<TRIPOS>MOLECULE
1IB
   47    49     1     0     0
SMALL
No Charge or Current Charge


@<TRIPOS>ATOM
      1 CAN        -20.8580    45.8480     1.1850 c5         1 1IB       0.154300
      2 CAQ        -19.6450    45.1350     0.5310 c5         1 1IB      -0.078400
      3 CAR        -18.5280    46.2280     0.5260 c5         1 1IB      -0.078400
      4 CAO        -19.2200    47.4740     1.1430 c5         1 1IB       0.154300
      5 NAD        -20.6320    47.2460     0.7720 n3         1 1IB      -0.720600
      6 CAP        -21.5990    48.2260     1.3130 c3         1 1IB       0.217100
      7 CAS        -21.3500    49.6420     0.8030 ca         1 1IB      -0.104300
      8 CAT        -20.8120    50.6410     1.6390 ca         1 1IB       0.163000
      9 FAB        -20.5030    50.3660     2.9270 f          1 1IB      -0.186000
     10 CAL        -20.5870    51.9380     1.1500 ca         1 1IB      -0.126000
     11 CAU        -21.6610    49.9650    -0.5320 ca         1 1IB      -0.067000
     12 CAM        -21.4360    51.2630    -1.0230 ca         1 1IB      -0.103000
     13 CAJ        -20.8900    52.2590    -0.1890 ca         1 1IB      -0.069300
     14 CAF        -20.6470    53.6730    -0.7230 cy         1 1IB       0.225300
     15 CAI        -19.3210    54.3890    -0.2640 cy         1 1IB      -0.086900
     16 FAA        -21.7840    54.3950    -0.5060 f          1 1IB      -0.266000
     17 CAH        -20.0620    53.7950    -2.1810 cy         1 1IB      -0.086900
     18 CAG        -19.3950    55.1300    -1.6570 cy         1 1IB      -0.168700
     19 CAK        -17.8840    54.8810    -2.0790 c          1 1IB       0.605100
     20 OAC        -17.3440    54.0940    -2.8460 o          1 1IB      -0.609100
     21 NAE        -17.1010    55.8240    -1.4440 ns         1 1IB      -0.504900
     22 CAV        -15.6410    55.9140    -1.5330 c3         1 1IB       0.102000
     23 CAW        -14.9440    54.8710    -0.6420 c3         1 1IB      -0.115100
     24 H1         -21.8160    45.4490     0.8220 h1         1 1IB       0.038700
     25 H2         -20.8360    45.7450     2.2790 h1         1 1IB       0.038700
     26 H3         -19.8820    44.8190    -0.4910 hc         1 1IB       0.046950
     27 H4         -19.3530    44.2380     1.0870 hc         1 1IB       0.046950
     28 H5         -17.6460    45.9300     1.1040 hc         1 1IB       0.046950
     29 H6         -18.1900    46.4340    -0.4960 hc         1 1IB       0.046950
     30 H7         -18.8190    48.4110     0.7340 h1         1 1IB       0.038700
     31 H8         -19.0940    47.4960     2.2350 h1         1 1IB       0.038700
     32 H10        -22.6180    47.9350     1.0220 h1         1 1IB       0.046700
     33 H11        -21.5740    48.2140     2.4110 h1         1 1IB       0.046700
     34 H12        -20.1780    52.6910     1.8180 ha         1 1IB       0.134000
     35 H13        -22.0750    49.2040    -1.1900 ha         1 1IB       0.129000
     36 H14        -21.6900    51.4910    -2.0560 ha         1 1IB       0.122000
     37 H15        -18.4890    53.6920    -0.0950 hc         1 1IB       0.077700
     38 H16        -19.4170    55.0270     0.6210 hc         1 1IB       0.077700
     39 H17        -20.8080    53.9180    -2.9730 hc         1 1IB       0.077700
     40 H18        -19.4260    52.9430    -2.4460 hc         1 1IB       0.077700
     41 H19        -19.8640    56.1140    -1.7740 hc         1 1IB       0.068700
     42 H20        -17.5860    56.4760    -0.8390 hn         1 1IB       0.310500
     43 H21        -15.3300    55.7760    -2.5780 h1         1 1IB       0.056200
     44 H22        -15.3330    56.9210    -1.2220 h1         1 1IB       0.056200
     45 H23        -13.8560    54.9760    -0.7140 hc         1 1IB       0.042367
     46 H24        -15.2340    55.0050     0.4070 hc         1 1IB       0.042367
     47 H25        -15.2120    53.8530    -0.9490 hc         1 1IB       0.042367
@<TRIPOS>BOND
     1     1     2 1   
     2     1     5 1   
     3     1    24 1   
     4     1    25 1   
     5     2     3 1   
     6     2    26 1   
     7     2    27 1   
     8     3     4 1   
     9     3    28 1   
    10     3    29 1   
    11     4     5 1   
    12     4    30 1   
    13     4    31 1   
    14     5     6 1   
    15     6     7 1   
    16     6    32 1   
    17     6    33 1   
    18     7     8 ar  
    19     7    11 ar  
    20     8     9 1   
    21     8    10 ar  
    22    10    13 ar  
    23    10    34 1   
    24    11    12 ar  
    25    11    35 1   
    26    12    13 ar  
    27    12    36 1   
    28    13    14 1   
    29    14    15 1   
    30    14    16 1   
    31    14    17 1   
    32    15    18 1   
    33    15    37 1   
    34    15    38 1   
    35    17    18 1   
    36    17    39 1   
    37    17    40 1   
    38    18    19 1   
    39    18    41 1   
    40    19    20 2   
    41    19    21 1   
    42    21    22 1   
    43    21    42 1   
    44    22    23 1   
    45    22    43 1   
    46    22    44 1   
    47    23    45 1   
    48    23    46 1   
    49    23    47 1   
@<TRIPOS>SUBSTRUCTURE
     1 1IB         1 TEMP              0 ****  ****    0 ROOT
