@<TRIPOS>MOLECULE
1IB
   47    49     1     0     0
SMALL
abcg2


@<TRIPOS>ATOM
      1 CAN        -21.2700    45.6650     0.9200 c5         1 1IB       0.154300
      2 CAQ        -20.0710    44.8470     0.4270 c5         1 1IB      -0.078400
      3 CAR        -18.8640    45.8130     0.5690 c5         1 1IB      -0.078400
      4 CAO        -19.4760    47.1140     1.1050 c5         1 1IB       0.154300
      5 NAD        -20.8710    47.0490     0.6630 n3         1 1IB      -0.720600
      6 CAP        -21.7450    48.0300     1.2910 c3         1 1IB       0.217100
      7 CAS        -21.4070    49.4330     0.8530 ca         1 1IB      -0.104300
      8 CAT        -20.8800    50.3850     1.7130 ca         1 1IB       0.163000
      9 FAB        -20.6690    50.0570     3.0170 f          1 1IB      -0.186000
     10 CAL        -20.5390    51.6660     1.3160 ca         1 1IB      -0.126000
     11 CAU        -21.5910    49.8280    -0.4740 ca         1 1IB      -0.067000
     12 CAM        -21.2580    51.1020    -0.9060 ca         1 1IB      -0.103000
     13 CAJ        -20.7270    52.0330    -0.0120 ca         1 1IB      -0.069300
     14 CAF        -20.3960    53.4180    -0.4730 cy         1 1IB       0.225300
     15 CAI        -19.2570    54.2240     0.1700 cy         1 1IB      -0.086900
     16 FAA        -21.5970    54.1930    -0.3920 f          1 1IB      -0.266000
     17 CAH        -19.7600    53.6570    -1.8510 cy         1 1IB      -0.086900
     18 CAG        -18.9150    54.8030    -1.2340 cy         1 1IB      -0.168700
     19 CAK        -17.4480    54.8340    -1.5950 c          1 1IB       0.605100
     20 OAC        -16.7620    53.8080    -1.5860 o          1 1IB      -0.609100
     21 NAE        -16.9520    56.0420    -1.9180 ns         1 1IB      -0.504900
     22 CAV        -15.5470    56.2830    -2.2170 c3         1 1IB       0.102000
     23 CAW        -14.7300    56.6270    -0.9750 c3         1 1IB      -0.115100
     24 H1         -22.2030    45.4320     0.4030 h1         1 1IB       0.038700
     25 H2         -21.4300    45.4970     1.9990 h1         1 1IB       0.038700
     26 H3         -20.2090    44.5580    -0.6150 hc         1 1IB       0.046950
     27 H4         -19.9450    43.9340     1.0090 hc         1 1IB       0.046950
     28 H5         -18.1020    45.4270     1.2460 hc         1 1IB       0.046950
     29 H6         -18.3910    45.9800    -0.3990 hc         1 1IB       0.046950
     30 H7         -18.9890    48.0120     0.7240 h1         1 1IB       0.038700
     31 H8         -19.4190    47.1400     2.2070 h1         1 1IB       0.038700
     32 H10        -22.7700    47.8060     0.9880 h1         1 1IB       0.046700
     33 H11        -21.7050    47.9550     2.3880 h1         1 1IB       0.046700
     34 H12        -20.1240    52.3540     2.0410 ha         1 1IB       0.134000
     35 H13        -21.9940    49.1070    -1.1750 ha         1 1IB       0.129000
     36 H14        -21.4070    51.3760    -1.9430 ha         1 1IB       0.122000
     37 H15        -18.4640    53.5690     0.5280 hc         1 1IB       0.077700
     38 H16        -19.5430    54.9270     0.9490 hc         1 1IB       0.077700
     39 H17        -20.4440    53.9120    -2.6580 hc         1 1IB       0.077700
     40 H18        -19.1290    52.8190    -2.1410 hc         1 1IB       0.077700
     41 H19        -19.3820    55.7740    -1.3880 hc         1 1IB       0.068700
     42 H20        -17.5640    56.8400    -1.8560 hn         1 1IB       0.310500
     43 H21        -15.1530    55.3880    -2.6950 h1         1 1IB       0.056200
     44 H22        -15.5000    57.0980    -2.9410 h1         1 1IB       0.056200
     45 H23        -13.6880    56.8040    -1.2470 hc         1 1IB       0.042367
     46 H24        -15.1170    57.5270    -0.4930 hc         1 1IB       0.042367
     47 H25        -14.7630    55.8080    -0.2540 hc         1 1IB       0.042367
@<TRIPOS>BOND
     1     1     2 1   
     2     1     5 1   
     3     1    24 1   
     4     1    25 1   
     5     2     3 1   
     6     2    26 1   
     7     2    27 1   
     8     3     4 1   
     9     3    28 1   
    10     3    29 1   
    11     4     5 1   
    12     4    30 1   
    13     4    31 1   
    14     5     6 1   
    15     6     7 1   
    16     6    32 1   
    17     6    33 1   
    18     7     8 ar  
    19     7    11 ar  
    20     8     9 1   
    21     8    10 ar  
    22    10    13 ar  
    23    10    34 1   
    24    11    12 ar  
    25    11    35 1   
    26    12    13 ar  
    27    12    36 1   
    28    13    14 1   
    29    14    15 1   
    30    14    16 1   
    31    14    17 1   
    32    15    18 1   
    33    15    37 1   
    34    15    38 1   
    35    17    18 1   
    36    17    39 1   
    37    17    40 1   
    38    18    19 1   
    39    18    41 1   
    40    19    20 2   
    41    19    21 1   
    42    21    22 1   
    43    21    42 1   
    44    22    23 1   
    45    22    43 1   
    46    22    44 1   
    47    23    45 1   
    48    23    46 1   
    49    23    47 1   
@<TRIPOS>SUBSTRUCTURE
     1 1IB         1 TEMP              0 ****  ****    0 ROOT
