@<TRIPOS>MOLECULE
1IC
   36    35     1     0     0
SMALL
bcc


@<TRIPOS>ATOM
      1 N          137.6250   136.2120   164.1330 n8         1 1IC      -0.891800
      2 CA         137.7620   137.1400   165.2430 c3         1 1IC       0.010500
      3 CB         137.8560   138.5630   164.7320 c3         1 1IC       0.167400
      4 C          139.0140   136.7980   166.1010 c          1 1IC       0.935600
      5 O          139.4120   135.6190   166.0540 o          1 1IC      -0.827800
      6 OG         136.6590   138.8420   163.9860 os         1 1IC      -0.434900
      7 C08        136.5470   140.0290   163.4050 c          1 1IC       0.640100
      8 C09        135.2590   140.1410   162.6300 c3         1 1IC      -0.146400
      9 C10        135.0910   141.4700   161.9100 c3         1 1IC      -0.066400
     10 C11        133.9080   141.4820   160.9450 c3         1 1IC      -0.076400
     11 C12        132.5430   141.3540   161.6130 c3         1 1IC      -0.075400
     12 C13        131.3760   141.3540   160.6260 c3         1 1IC      -0.074400
     13 C14        131.1740   142.6720   159.8870 c3         1 1IC      -0.076400
     14 C15        129.9770   142.6360   158.9460 c3         1 1IC      -0.089100
     15 O16        137.3830   140.8950   163.4920 o          1 1IC      -0.561000
     16 H1         137.9200   135.3000   164.4580 hn         1 1IC       0.331800
     17 H2         136.6560   136.1300   163.8580 hn         1 1IC       0.331800
     18 H4         136.9050   137.0900   165.9370 h1         1 1IC       0.006700
     19 H5         138.7260   138.6740   164.0790 h1         1 1IC       0.059200
     20 H6         137.9470   139.2670   165.5580 h1         1 1IC       0.059200
     21 H8         134.4330   139.9560   163.3230 hc         1 1IC       0.063700
     22 H9         135.2240   139.3150   161.9120 hc         1 1IC       0.063700
     23 H10        135.9990   141.6930   161.3470 hc         1 1IC       0.051200
     24 H11        134.9750   142.2770   162.6380 hc         1 1IC       0.051200
     25 H12        134.0310   140.6700   160.2180 hc         1 1IC       0.034700
     26 H13        133.9490   142.4100   160.3700 hc         1 1IC       0.034700
     27 H14        132.4120   142.1710   162.3310 hc         1 1IC       0.040200
     28 H15        132.5030   140.4290   162.1960 hc         1 1IC       0.040200
     29 H16        130.4550   141.1110   161.1660 hc         1 1IC       0.034200
     30 H17        131.5210   140.5480   159.8980 hc         1 1IC       0.034200
     31 H18        132.0700   142.9250   159.3140 hc         1 1IC       0.037700
     32 H19        131.0440   143.4770   160.6170 hc         1 1IC       0.037700
     33 H20        129.8460   143.5860   158.4270 hc         1 1IC       0.027367
     34 H21        130.0970   141.8600   158.1890 hc         1 1IC       0.027367
     35 H22        129.0530   142.4250   159.4880 hc         1 1IC       0.027367
     36 OXT        139.4850   137.7250   166.7860 o          1 1IC      -0.827800
@<TRIPOS>BOND
     1     1     2 1   
     2     1    16 1   
     3     1    17 1   
     4     2     3 1   
     5     2     4 1   
     6     2    18 1   
     7     3     6 1   
     8     3    19 1   
     9     3    20 1   
    10     4     5 1   
    11     4    36 1   
    12     6     7 1   
    13     7     8 1   
    14     7    15 2   
    15     8     9 1   
    16     8    21 1   
    17     8    22 1   
    18     9    10 1   
    19     9    23 1   
    20     9    24 1   
    21    10    11 1   
    22    10    25 1   
    23    10    26 1   
    24    11    12 1   
    25    11    27 1   
    26    11    28 1   
    27    12    13 1   
    28    12    29 1   
    29    12    30 1   
    30    13    14 1   
    31    13    31 1   
    32    13    32 1   
    33    14    33 1   
    34    14    34 1   
    35    14    35 1   
@<TRIPOS>SUBSTRUCTURE
     1 1IC         1 TEMP              0 ****  ****    0 ROOT
