@<TRIPOS>MOLECULE
1IE
   38    41     1     0     0
SMALL
No Charge or Current Charge


@<TRIPOS>ATOM
      1 N1         -39.7860    13.7680   -21.2840 nu         1 1IE      -0.980000
      2 C1         -44.1120    11.5340   -23.1790 c3         1 1IE       0.018900
      3 N2         -36.3180    15.8510   -19.6480 na         1 1IE      -0.133000
      4 C3         -40.4130     9.7170   -22.2290 ca         1 1IE      -0.124000
      5 C4         -39.1690    10.1260   -21.7210 ca         1 1IE      -0.072000
      6 C5         -38.9530    11.4770   -21.4020 ca         1 1IE      -0.155000
      7 C6         -39.9800    12.4200   -21.5840 ca         1 1IE       0.303000
      8 C7         -38.7180    14.4470   -20.7300 cc         1 1IE       0.405000
      9 C8         -38.1030    15.4980   -21.3700 cd         1 1IE      -0.161800
     10 C9         -36.9810    16.1350   -20.8290 cd         1 1IE      -0.039000
     11 C10        -36.9590    14.8170   -18.9380 ca         1 1IE       0.036000
     12 C11        -36.4190    14.4810   -17.6810 ca         1 1IE      -0.185000
     13 C12        -37.0070    13.4890   -16.8830 ca         1 1IE      -0.045000
     14 C13        -38.1570    12.8270   -17.3320 ca         1 1IE      -0.164000
     15 C14        -38.7110    13.1460   -18.5820 ca         1 1IE      -0.033000
     16 C15        -38.1180    14.1240   -19.4150 ca         1 1IE      -0.139000
     17 C16        -36.5680    17.1130   -21.6880 cc         1 1IE      -0.316000
     18 C17        -37.4680    17.0880   -22.8110 cc         1 1IE      -0.141000
     19 C18        -38.4160    16.0940   -22.6320 cd         1 1IE      -0.253200
     20 C19        -41.2190    12.0070   -22.1020 ca         1 1IE      -0.164000
     21 C2         -41.4450    10.6510   -22.4250 ca         1 1IE      -0.065000
     22 S1         -43.0080    10.0560   -23.0830 ss         1 1IE      -0.159000
     23 H1         -40.3910    14.3930   -21.8120 hn         1 1IE       0.493000
     24 H2         -45.0910    11.2320   -23.5710 h1         1 1IE       0.066033
     25 H3         -44.2450    11.9650   -22.1790 h1         1 1IE       0.066033
     26 H4         -43.6750    12.2840   -23.8490 h1         1 1IE       0.066033
     27 H5         -35.4930    16.3400   -19.3260 hn         1 1IE       0.345000
     28 H6         -40.5750     8.6700   -22.4740 ha         1 1IE       0.126000
     29 H7         -38.3740     9.3980   -21.5770 ha         1 1IE       0.117000
     30 H8         -37.9850    11.7860   -21.0210 ha         1 1IE       0.130000
     31 H9         -35.5360    14.9980   -17.3110 ha         1 1IE       0.116000
     32 H10        -36.5790    13.2420   -15.9130 ha         1 1IE       0.116000
     33 H11        -38.6230    12.0670   -16.7100 ha         1 1IE       0.120000
     34 H12        -39.6130    12.6260   -18.8950 ha         1 1IE       0.128000
     35 H13        -35.7210    17.7870   -21.5690 ha         1 1IE       0.191000
     36 H14        -37.3950    17.7520   -23.6720 ha         1 1IE       0.181000
     37 H15        -39.2180    15.8260   -23.3160 ha         1 1IE       0.185000
     38 H16        -41.9960    12.7500   -22.2420 ha         1 1IE       0.118000
@<TRIPOS>BOND
     1     1     7 1   
     2     1     8 1   
     3     1    23 1   
     4     2    22 1   
     5     2    24 1   
     6     2    25 1   
     7     2    26 1   
     8     3    10 1   
     9     3    11 1   
    10     3    27 1   
    11     4     5 ar  
    12     4    21 ar  
    13     4    28 1   
    14     5     6 ar  
    15     5    29 1   
    16     6     7 ar  
    17     6    30 1   
    18     7    20 ar  
    19     8     9 2   
    20     8    16 1   
    21     9    10 1   
    22     9    19 1   
    23    10    17 2   
    24    11    12 ar  
    25    11    16 ar  
    26    12    13 ar  
    27    12    31 1   
    28    13    14 ar  
    29    13    32 1   
    30    14    15 ar  
    31    14    33 1   
    32    15    16 ar  
    33    15    34 1   
    34    17    18 1   
    35    17    35 1   
    36    18    19 2   
    37    18    36 1   
    38    19    37 1   
    39    20    21 ar  
    40    20    38 1   
    41    21    22 1   
@<TRIPOS>SUBSTRUCTURE
     1 1IE         1 TEMP              0 ****  ****    0 ROOT
