@<TRIPOS>MOLECULE
1IE
   38    41     1     0     0
SMALL
abcg2


@<TRIPOS>ATOM
      1 N1         -39.7510    13.9110   -21.5030 nu         1 1IE      -0.980000
      2 C1         -44.0640    11.3670   -22.5880 c3         1 1IE       0.018900
      3 N2         -36.4820    15.7140   -19.6170 na         1 1IE      -0.133000
      4 C3         -40.2770     9.8130   -22.1780 ca         1 1IE      -0.124000
      5 C4         -39.0210    10.3060   -21.8740 ca         1 1IE      -0.072000
      6 C5         -38.8120    11.6600   -21.6530 ca         1 1IE      -0.155000
      7 C6         -39.8920    12.5350   -21.7200 ca         1 1IE       0.303000
      8 C7         -38.6680    14.5050   -20.8870 cc         1 1IE       0.405000
      9 C8         -38.0060    15.5450   -21.4930 cd         1 1IE      -0.161800
     10 C9         -36.8790    16.1750   -20.8310 cd         1 1IE      -0.039000
     11 C10        -37.1340    14.7160   -18.9710 ca         1 1IE       0.036000
     12 C11        -36.7020    14.3140   -17.6930 ca         1 1IE      -0.185000
     13 C12        -37.3910    13.3510   -17.0030 ca         1 1IE      -0.045000
     14 C13        -38.5440    12.7700   -17.5550 ca         1 1IE      -0.164000
     15 C14        -38.9640    13.1410   -18.8060 ca         1 1IE      -0.033000
     16 C15        -38.2590    14.0970   -19.5670 ca         1 1IE      -0.139000
     17 C16        -36.3680    17.1580   -21.6470 cc         1 1IE      -0.316000
     18 C17        -37.1740    17.1560   -22.8280 cc         1 1IE      -0.141000
     19 C18        -38.1560    16.1940   -22.7560 cd         1 1IE      -0.253200
     20 C19        -41.1640    12.0490   -22.0270 ca         1 1IE      -0.164000
     21 C2         -41.3580    10.6940   -22.2650 ca         1 1IE      -0.065000
     22 S1         -42.9180     9.9810   -22.6600 ss         1 1IE      -0.159000
     23 H1         -40.2200    14.4920   -22.1820 hn         1 1IE       0.493000
     24 H2         -45.0470    10.9530   -22.8020 h1         1 1IE       0.066033
     25 H3         -44.0860    11.8210   -21.5990 h1         1 1IE       0.066033
     26 H4         -43.8370    12.1230   -23.3390 h1         1 1IE       0.066033
     27 H5         -35.6760    16.1310   -19.1720 hn         1 1IE       0.345000
     28 H6         -40.4180     8.7530   -22.3510 ha         1 1IE       0.126000
     29 H7         -38.1820     9.6240   -21.8190 ha         1 1IE       0.117000
     30 H8         -37.8170    12.0250   -21.4390 ha         1 1IE       0.130000
     31 H9         -35.8270    14.7840   -17.2600 ha         1 1IE       0.116000
     32 H10        -37.0520    13.0530   -16.0200 ha         1 1IE       0.116000
     33 H11        -39.1040    12.0370   -16.9910 ha         1 1IE       0.120000
     34 H12        -39.8640    12.6970   -19.2060 ha         1 1IE       0.128000
     35 H13        -35.5190    17.7930   -21.4460 ha         1 1IE       0.191000
     36 H14        -37.0190    17.8220   -23.6660 ha         1 1IE       0.181000
     37 H15        -38.8980    15.9710   -23.5080 ha         1 1IE       0.185000
     38 H16        -41.9880    12.7490   -22.0660 ha         1 1IE       0.118000
@<TRIPOS>BOND
     1     1     7 1   
     2     1     8 1   
     3     1    23 1   
     4     2    22 1   
     5     2    24 1   
     6     2    25 1   
     7     2    26 1   
     8     3    10 1   
     9     3    11 1   
    10     3    27 1   
    11     4     5 ar  
    12     4    21 ar  
    13     4    28 1   
    14     5     6 ar  
    15     5    29 1   
    16     6     7 ar  
    17     6    30 1   
    18     7    20 ar  
    19     8     9 2   
    20     8    16 1   
    21     9    10 1   
    22     9    19 1   
    23    10    17 2   
    24    11    12 ar  
    25    11    16 ar  
    26    12    13 ar  
    27    12    31 1   
    28    13    14 ar  
    29    13    32 1   
    30    14    15 ar  
    31    14    33 1   
    32    15    16 ar  
    33    15    34 1   
    34    17    18 1   
    35    17    35 1   
    36    18    19 2   
    37    18    36 1   
    38    19    37 1   
    39    20    21 ar  
    40    20    38 1   
    41    21    22 1   
@<TRIPOS>SUBSTRUCTURE
     1 1IE         1 TEMP              0 ****  ****    0 ROOT
