@<TRIPOS>MOLECULE
1IF
   42    44     1     0     0
SMALL
abcg2


@<TRIPOS>ATOM
      1 C11         26.6070    -4.3560    -2.4510 ca         1 1IF      -0.021000
      2 C13         28.1490    -6.1310    -1.8850 ca         1 1IF      -0.086000
      3 C15         26.9730    -6.1870    -3.9670 ca         1 1IF      -0.161300
      4 C16         26.3300    -4.9890    -3.6630 ca         1 1IF      -0.089000
      5 C17         26.6250    -6.8670    -5.2590 c3         1 1IF       0.343300
      6 C21         20.5380     1.4510    -1.9430 cg         1 1IF      -0.065000
      7 C22         19.2210     1.9460    -2.1320 ca         1 1IF      -0.098000
      8 C23         18.9330     2.8750    -3.1360 ca         1 1IF       0.414900
      9 C25         16.7040     2.9780    -2.5850 ca         1 1IF       0.610900
     10 C26         16.8880     2.0430    -1.5450 ca         1 1IF      -0.236000
     11 C27         18.1430     1.5320    -1.3250 ca         1 1IF      -0.007000
     12 C1          24.6970    -1.1270    -1.9900 ca         1 1IF      -0.156600
     13 C2          25.5860    -0.4120    -1.1830 ca         1 1IF      -0.084000
     14 C3          25.1790     0.7740    -0.5830 ca         1 1IF      -0.119000
     15 C4          23.8900     1.2500    -0.7710 ca         1 1IF      -0.067000
     16 C5          22.9870     0.5440    -1.5810 ca         1 1IF       0.035000
     17 C6          23.4090    -0.6410    -2.1930 ca         1 1IF      -0.036000
     18 C7          21.6600     1.0290    -1.7790 ch         1 1IF      -0.134000
     19 C8          25.0760    -2.3970    -2.6910 c          1 1IF       0.620700
     20 O9          24.5510    -2.7220    -3.7510 o          1 1IF      -0.572100
     21 N10         26.0230    -3.1450    -2.0540 ns         1 1IF      -0.145000
     22 C12         27.5240    -4.9390    -1.5670 ca         1 1IF      -0.141000
     23 C14         27.8790    -6.7710    -3.0910 ca         1 1IF      -0.090000
     24 F18         27.5400    -7.7850    -5.6310 f          1 1IF      -0.111667
     25 F19         25.4350    -7.5200    -5.1840 f          1 1IF      -0.111667
     26 F20         26.5070    -5.9950    -6.2870 f          1 1IF      -0.111667
     27 N24         17.7220     3.3770    -3.3640 nb         1 1IF      -0.747000
     28 N28         15.4850     3.5440    -2.8150 nv         1 1IF      -1.063900
     29 H35         28.8550    -6.5670    -1.1900 ha         1 1IF       0.122000
     30 H37         25.6280    -4.5500    -4.3510 ha         1 1IF       0.166000
     31 H38         19.7280     3.2230    -3.7860 h4         1 1IF       0.025100
     32 H39         16.0460     1.7390    -0.9360 ha         1 1IF       0.123000
     33 H40         18.3090     0.8110    -0.5350 ha         1 1IF       0.123000
     34 H29         26.6040    -0.7510    -1.0420 ha         1 1IF       0.113000
     35 H30         25.8740     1.3310     0.0310 ha         1 1IF       0.121000
     36 H31         23.5720     2.1700    -0.2980 ha         1 1IF       0.126000
     37 H32         22.7280    -1.1910    -2.8270 ha         1 1IF       0.144000
     38 H33         26.3180    -2.8160    -1.1470 hn         1 1IF       0.155000
     39 H34         27.7410    -4.4460    -0.6270 ha         1 1IF       0.114000
     40 H36         28.3680    -7.7010    -3.3420 ha         1 1IF       0.134000
     41 H42         15.3590     4.0230    -3.6930 hn         1 1IF       0.481500
     42 H41         14.6680     3.0950    -2.4340 hn         1 1IF       0.481500
@<TRIPOS>BOND
     1     1     4 ar  
     2     1    21 1   
     3     1    22 ar  
     4     2    22 ar  
     5     2    23 ar  
     6     2    29 1   
     7     3     4 ar  
     8     3     5 1   
     9     3    23 ar  
    10     4    30 1   
    11     5    24 1   
    12     5    25 1   
    13     5    26 1   
    14     6     7 1   
    15     6    18 3   
    16     7     8 ar  
    17     7    11 ar  
    18     8    27 ar  
    19     8    31 1   
    20     9    10 ar  
    21     9    27 ar  
    22     9    28 1   
    23    10    11 ar  
    24    10    32 1   
    25    11    33 1   
    26    12    13 ar  
    27    12    17 ar  
    28    12    19 1   
    29    13    14 ar  
    30    13    34 1   
    31    14    15 ar  
    32    14    35 1   
    33    15    16 ar  
    34    15    36 1   
    35    16    17 ar  
    36    16    18 1   
    37    17    37 1   
    38    19    20 2   
    39    19    21 1   
    40    21    38 1   
    41    22    39 1   
    42    23    40 1   
    43    28    41 1   
    44    28    42 1   
@<TRIPOS>SUBSTRUCTURE
     1 1IF         1 TEMP              0 ****  ****    0 ROOT
