@<TRIPOS>MOLECULE
1IF
   42    44     1     0     0
SMALL
No Charge or Current Charge


@<TRIPOS>ATOM
      1 C11         26.7990    -4.2630    -2.6640 ca         1 1IF      -0.021000
      2 C13         28.8740    -5.5480    -2.6230 ca         1 1IF      -0.086000
      3 C15         27.0000    -6.3350    -3.9750 ca         1 1IF      -0.161300
      4 C16         26.2440    -5.2200    -3.5450 ca         1 1IF      -0.089000
      5 C17         26.3720    -7.3650    -4.9230 c3         1 1IF       0.343300
      6 C21         20.4370     1.5050    -1.8100 cg         1 1IF      -0.065000
      7 C22         19.1550     2.0750    -2.1050 ca         1 1IF      -0.098000
      8 C23         19.0410     3.1910    -2.9630 ca         1 1IF       0.414900
      9 C25         16.7720     3.2360    -2.7330 ca         1 1IF       0.610900
     10 C26         16.7600     2.1330    -1.8760 ca         1 1IF      -0.236000
     11 C27         17.9850     1.5300    -1.5470 ca         1 1IF      -0.007000
     12 C1          24.4530    -1.3380    -1.7330 ca         1 1IF      -0.156600
     13 C2          25.3070    -0.7370    -0.7740 ca         1 1IF      -0.084000
     14 C3          24.9080     0.4260    -0.0930 ca         1 1IF      -0.119000
     15 C4          23.6570     1.0070    -0.3550 ca         1 1IF      -0.067000
     16 C5          22.7970     0.4250    -1.3010 ca         1 1IF       0.035000
     17 C6          23.1950    -0.7400    -1.9840 ca         1 1IF      -0.036000
     18 C7          21.5270     1.0120    -1.5690 ch         1 1IF      -0.134000
     19 C8          24.8420    -2.5950    -2.4920 c          1 1IF       0.620700
     20 O9          24.0840    -3.0940    -3.3170 o          1 1IF      -0.572100
     21 N10         26.0950    -3.1190    -2.1920 ns         1 1IF      -0.145000
     22 C12         28.1180    -4.4400    -2.2090 ca         1 1IF      -0.141000
     23 C14         28.3190    -6.4920    -3.5000 ca         1 1IF      -0.090000
     24 F18         27.2960    -8.1160    -5.5660 f          1 1IF      -0.111667
     25 F19         25.5650    -8.2190    -4.2560 f          1 1IF      -0.111667
     26 F20         25.6190    -6.7780    -5.8820 f          1 1IF      -0.111667
     27 N24         17.8550     3.7690    -3.2780 nb         1 1IF      -0.747000
     28 N28         15.6730     3.8820    -3.1200 nv         1 1IF      -1.063900
     29 H35         29.8920    -5.6760    -2.2610 ha         1 1IF       0.122000
     30 H37         25.2230    -5.1210    -3.9010 ha         1 1IF       0.166000
     31 H38         19.9270     3.6370    -3.4140 h4         1 1IF       0.025100
     32 H39         15.8270     1.7540    -1.4720 ha         1 1IF       0.123000
     33 H40         18.0230     0.6700    -0.8810 ha         1 1IF       0.123000
     34 H29         26.2830    -1.1540    -0.5420 ha         1 1IF       0.113000
     35 H30         25.5710     0.8800     0.6400 ha         1 1IF       0.121000
     36 H31         23.3570     1.9070     0.1780 ha         1 1IF       0.126000
     37 H32         22.5170    -1.1790    -2.7140 ha         1 1IF       0.144000
     38 H33         26.6080    -2.5870    -1.5040 hn         1 1IF       0.155000
     39 H34         28.5620    -3.7170    -1.5280 ha         1 1IF       0.114000
     40 H36         28.9210    -7.3470    -3.8030 ha         1 1IF       0.134000
     41 H42         15.8030     4.4920    -3.9190 hn         1 1IF       0.481500
     42 H41         14.7940     3.3790    -3.0770 hn         1 1IF       0.481500
@<TRIPOS>BOND
     1     1     4 ar  
     2     1    21 1   
     3     1    22 ar  
     4     2    22 ar  
     5     2    23 ar  
     6     2    29 1   
     7     3     4 ar  
     8     3     5 1   
     9     3    23 ar  
    10     4    30 1   
    11     5    24 1   
    12     5    25 1   
    13     5    26 1   
    14     6     7 1   
    15     6    18 3   
    16     7     8 ar  
    17     7    11 ar  
    18     8    27 ar  
    19     8    31 1   
    20     9    10 ar  
    21     9    27 ar  
    22     9    28 1   
    23    10    11 ar  
    24    10    32 1   
    25    11    33 1   
    26    12    13 ar  
    27    12    17 ar  
    28    12    19 1   
    29    13    14 ar  
    30    13    34 1   
    31    14    15 ar  
    32    14    35 1   
    33    15    16 ar  
    34    15    36 1   
    35    16    17 ar  
    36    16    18 1   
    37    17    37 1   
    38    19    20 2   
    39    19    21 1   
    40    21    38 1   
    41    22    39 1   
    42    23    40 1   
    43    28    41 1   
    44    28    42 1   
@<TRIPOS>SUBSTRUCTURE
     1 1IF         1 TEMP              0 ****  ****    0 ROOT
