@<TRIPOS>MOLECULE
1IG
   55    57     1     0     0
SMALL
No Charge or Current Charge


@<TRIPOS>ATOM
      1 C1           3.3690    -0.4120    -1.3350 ca         1 1IG       0.427900
      2 N1           4.6730    -0.1500    -1.2260 nb         1 1IG      -0.331000
      3 C2           5.2540    -0.5910    -0.1080 ca         1 1IG       0.413900
      4 N2           4.6880    -1.2590     0.9030 nb         1 1IG      -0.286000
      5 C3           3.3720    -1.5270     0.7860 ca         1 1IG       0.210300
      6 C4           2.6350    -1.1150    -0.3570 cp         1 1IG      -0.288000
      7 N3           2.7990     0.0350    -2.4800 nv         1 1IG      -1.069900
      8 N4           6.5750    -0.3310     0.0120 nv         1 1IG      -1.054900
      9 C5           2.7440    -2.2620     1.9670 c3         1 1IG      -0.135700
     10 C6           1.9460    -1.3240     2.8960 c3         1 1IG      -0.082100
     11 C7           0.7090    -2.6980    -0.7380 ca         1 1IG      -0.128000
     12 C8          -0.6660    -2.9550    -0.8180 ca         1 1IG      -0.061000
     13 C9          -1.5900    -1.9040    -0.6930 ca         1 1IG      -0.153000
     14 C10         -1.1540    -0.5620    -0.5590 ca         1 1IG      -0.012000
     15 C11          0.2360    -0.3440    -0.4030 ca         1 1IG      -0.139000
     16 C12          1.1780    -1.3910    -0.5060 cp         1 1IG       0.018000
     17 S1          -3.3200    -2.3170    -0.7000 ss         1 1IG      -0.146000
     18 C14         -3.9350    -1.0560     0.4820 c6         1 1IG       0.009000
     19 C15         -3.4690     0.3440    -0.0080 c          1 1IG       0.569000
     20 N5          -2.0930     0.5290    -0.3320 n          1 1IG      -0.223400
     21 C16         -1.6590     1.9090    -0.6880 c3         1 1IG       0.075000
     22 C17         -1.2090     2.7360     0.5370 c3         1 1IG       0.082000
     23 N6          -0.6410     4.0400     0.1690 ns         1 1IG      -0.513900
     24 C13         -1.3630     5.1040    -0.3220 c          1 1IG       0.597100
     25 C19         -0.5370     6.3420    -0.6440 c3         1 1IG      -0.180100
     26 C21         -5.4900    -1.1600     0.5550 c3         1 1IG      -0.077600
     27 C20         -3.3500    -1.3400     1.9000 c3         1 1IG      -0.077600
     28 O4          -4.2680     1.2730    -0.0770 o          1 1IG      -0.508000
     29 O1          -2.5730     5.0590    -0.4850 o          1 1IG      -0.589100
     30 HN31         3.4110     0.3050    -3.2450 hn         1 1IG       0.492000
     31 HN32         1.8810    -0.3220    -2.7260 hn         1 1IG       0.492000
     32 HN41         7.1010    -0.8360     0.7210 hn         1 1IG       0.489000
     33 HN42         7.0870    -0.0340    -0.8140 hn         1 1IG       0.489000
     34 H51          3.5190    -2.7620     2.5610 hc         1 1IG       0.059700
     35 H52          2.0830    -3.0600     1.6130 hc         1 1IG       0.059700
     36 H61          1.1140    -0.8540     2.3580 hc         1 1IG       0.037700
     37 H62          1.5310    -1.8850     3.7420 hc         1 1IG       0.037700
     38 H63          2.5920    -0.5320     3.2930 hc         1 1IG       0.037700
     39 H8          -1.0160    -3.9760    -0.9520 ha         1 1IG       0.128000
     40 H11          0.6230     0.6490    -0.2000 ha         1 1IG       0.124000
     41 H161        -0.8320     1.8520    -1.4060 h1         1 1IG       0.070200
     42 H162        -2.4690     2.4370    -1.2060 h1         1 1IG       0.070200
     43 H171        -2.0690     2.8970     1.2010 h1         1 1IG       0.064200
     44 H172        -0.4550     2.1760     1.1040 h1         1 1IG       0.064200
     45 HN6          0.3580     4.1800     0.2740 hn         1 1IG       0.311500
     46 H191         0.2620     6.0670    -1.3420 hc         1 1IG       0.059700
     47 H192        -1.1460     7.1670    -1.0300 hc         1 1IG       0.059700
     48 H193         0.0250     6.6380     0.2490 hc         1 1IG       0.059700
     49 H211        -5.8070    -2.1610     0.8730 hc         1 1IG       0.054367
     50 H212        -5.9110    -0.4400     1.2680 hc         1 1IG       0.054367
     51 H213        -5.9480    -0.9670    -0.4230 hc         1 1IG       0.054367
     52 H201        -2.2550    -1.2900     1.9160 hc         1 1IG       0.054367
     53 H202        -3.7170    -0.6100     2.6320 hc         1 1IG       0.054367
     54 H203        -3.6360    -2.3370     2.2550 hc         1 1IG       0.054367
     55 H7           1.4160    -3.5190    -0.8250 ha         1 1IG       0.123000
@<TRIPOS>BOND
     1     1     2 ar  
     2     1     6 ar  
     3     1     7 1   
     4     2     3 ar  
     5     3     4 ar  
     6     3     8 1   
     7     4     5 ar  
     8     5     6 ar  
     9     5     9 1   
    10     6    16 1   
    11     7    30 1   
    12     7    31 1   
    13     8    32 1   
    14     8    33 1   
    15     9    10 1   
    16     9    34 1   
    17     9    35 1   
    18    10    36 1   
    19    10    37 1   
    20    10    38 1   
    21    11    12 ar  
    22    11    16 ar  
    23    11    55 1   
    24    12    13 ar  
    25    12    39 1   
    26    13    14 ar  
    27    13    17 1   
    28    14    15 ar  
    29    14    20 1   
    30    15    16 ar  
    31    15    40 1   
    32    17    18 1   
    33    18    19 1   
    34    18    26 1   
    35    18    27 1   
    36    19    20 1   
    37    19    28 2   
    38    20    21 1   
    39    21    22 1   
    40    21    41 1   
    41    21    42 1   
    42    22    23 1   
    43    22    43 1   
    44    22    44 1   
    45    23    24 1   
    46    23    45 1   
    47    24    25 1   
    48    24    29 2   
    49    25    46 1   
    50    25    47 1   
    51    25    48 1   
    52    26    49 1   
    53    26    50 1   
    54    26    51 1   
    55    27    52 1   
    56    27    53 1   
    57    27    54 1   
@<TRIPOS>SUBSTRUCTURE
     1 1IG         1 TEMP              0 ****  ****    0 ROOT
