@<TRIPOS>MOLECULE
1IG
   55    57     1     0     0
SMALL
abcg2


@<TRIPOS>ATOM
      1 C1           3.3260    -0.6480    -1.4450 ca         1 1IG       0.427900
      2 N1           4.6270    -0.4050    -1.3270 nb         1 1IG      -0.331000
      3 C2           5.1850    -0.6710    -0.1470 ca         1 1IG       0.413900
      4 N2           4.5670    -1.1640     0.9240 nb         1 1IG      -0.286000
      5 C3           3.2610    -1.4090     0.8000 ca         1 1IG       0.210300
      6 C4           2.5660    -1.1710    -0.3730 cp         1 1IG      -0.288000
      7 N3           2.7500    -0.3480    -2.6250 nv         1 1IG      -1.069900
      8 N4           6.5020    -0.3830    -0.0200 nv         1 1IG      -1.054900
      9 C5           2.5690    -1.9090     2.0360 c3         1 1IG      -0.135700
     10 C6           2.2100    -0.7520     2.9680 c3         1 1IG      -0.082100
     11 C7           0.6480    -2.6980    -0.8720 ca         1 1IG      -0.128000
     12 C8          -0.7130    -2.9280    -0.9730 ca         1 1IG      -0.061000
     13 C9          -1.6210    -1.8930    -0.7810 ca         1 1IG      -0.153000
     14 C10         -1.1670    -0.6050    -0.4830 ca         1 1IG      -0.012000
     15 C11          0.2040    -0.4030    -0.3350 ca         1 1IG      -0.139000
     16 C12          1.1180    -1.4330    -0.5300 cp         1 1IG       0.018000
     17 S1          -3.3400    -2.1890    -0.9090 ss         1 1IG      -0.146000
     18 C14         -3.8700    -1.0470     0.4130 c6         1 1IG       0.009000
     19 C15         -3.3770     0.3410     0.0200 c          1 1IG       0.569000
     20 N5          -2.0670     0.4690    -0.3650 n          1 1IG      -0.223400
     21 C16         -1.5980     1.8170    -0.6780 c3         1 1IG       0.075000
     22 C17         -1.2040     2.6120     0.5670 c3         1 1IG       0.082000
     23 N6          -0.6270     3.8870     0.2180 ns         1 1IG      -0.513900
     24 C13         -1.3570     4.9960    -0.0020 c          1 1IG       0.597100
     25 C19         -0.5680     6.2290    -0.3690 c3         1 1IG      -0.180100
     26 C21         -5.3910    -1.0930     0.4330 c3         1 1IG      -0.077600
     27 C20         -3.3080    -1.4520     1.7730 c3         1 1IG      -0.077600
     28 O4          -4.1110     1.3070     0.0730 o          1 1IG      -0.508000
     29 O1          -2.5750     5.0160     0.1000 o          1 1IG      -0.589100
     30 HN31         3.3450    -0.1390    -3.4080 hn         1 1IG       0.492000
     31 HN32         1.8270    -0.6840    -2.8390 hn         1 1IG       0.492000
     32 HN41         6.9970    -0.7810     0.7590 hn         1 1IG       0.489000
     33 HN42         7.0370    -0.2300    -0.8570 hn         1 1IG       0.489000
     34 H51          3.2360    -2.6010     2.5530 hc         1 1IG       0.059700
     35 H52          1.6660    -2.4610     1.7740 hc         1 1IG       0.059700
     36 H61          1.5220    -0.0570     2.4870 hc         1 1IG       0.037700
     37 H62          1.7290    -1.1220     3.8740 hc         1 1IG       0.037700
     38 H63          3.1000    -0.1960     3.2630 hc         1 1IG       0.037700
     39 H8          -1.0800    -3.9210    -1.1990 ha         1 1IG       0.128000
     40 H11          0.5890     0.5690    -0.0560 ha         1 1IG       0.124000
     41 H161        -0.7530     1.7340    -1.3600 h1         1 1IG       0.070200
     42 H162        -2.3850     2.3470    -1.2120 h1         1 1IG       0.070200
     43 H171        -2.0750     2.7700     1.2010 h1         1 1IG       0.064200
     44 H172        -0.4710     2.0650     1.1630 h1         1 1IG       0.064200
     45 HN6          0.3690     3.9270     0.0810 hn         1 1IG       0.311500
     46 H191         0.5030     6.0560    -0.4570 hc         1 1IG       0.059700
     47 H192        -0.9350     6.6250    -1.3160 hc         1 1IG       0.059700
     48 H193        -0.7310     6.9960     0.3880 hc         1 1IG       0.059700
     49 H211        -5.7250    -2.1050     0.6630 hc         1 1IG       0.054367
     50 H212        -5.7810    -0.4320     1.2050 hc         1 1IG       0.054367
     51 H213        -5.8270    -0.7990    -0.5220 hc         1 1IG       0.054367
     52 H201        -2.2190    -1.4670     1.8010 hc         1 1IG       0.054367
     53 H202        -3.6550    -0.7530     2.5360 hc         1 1IG       0.054367
     54 H203        -3.6660    -2.4470     2.0370 hc         1 1IG       0.054367
     55 H7           1.3460    -3.5090    -1.0310 ha         1 1IG       0.123000
@<TRIPOS>BOND
     1     1     2 ar  
     2     1     6 ar  
     3     1     7 1   
     4     2     3 ar  
     5     3     4 ar  
     6     3     8 1   
     7     4     5 ar  
     8     5     6 ar  
     9     5     9 1   
    10     6    16 1   
    11     7    30 1   
    12     7    31 1   
    13     8    32 1   
    14     8    33 1   
    15     9    10 1   
    16     9    34 1   
    17     9    35 1   
    18    10    36 1   
    19    10    37 1   
    20    10    38 1   
    21    11    12 ar  
    22    11    16 ar  
    23    11    55 1   
    24    12    13 ar  
    25    12    39 1   
    26    13    14 ar  
    27    13    17 1   
    28    14    15 ar  
    29    14    20 1   
    30    15    16 ar  
    31    15    40 1   
    32    17    18 1   
    33    18    19 1   
    34    18    26 1   
    35    18    27 1   
    36    19    20 1   
    37    19    28 2   
    38    20    21 1   
    39    21    22 1   
    40    21    41 1   
    41    21    42 1   
    42    22    23 1   
    43    22    43 1   
    44    22    44 1   
    45    23    24 1   
    46    23    45 1   
    47    24    25 1   
    48    24    29 2   
    49    25    46 1   
    50    25    47 1   
    51    25    48 1   
    52    26    49 1   
    53    26    50 1   
    54    26    51 1   
    55    27    52 1   
    56    27    53 1   
    57    27    54 1   
@<TRIPOS>SUBSTRUCTURE
     1 1IG         1 TEMP              0 ****  ****    0 ROOT
