@<TRIPOS>MOLECULE
1IH
   34    35     1     0     0
SMALL
bcc


@<TRIPOS>ATOM
      1 C02         -6.8040   -49.4200   131.6550 ca         1 1IH       0.743200
      2 C04         -4.9120   -50.7280   131.7130 ca         1 1IH       0.642900
      3 C06         -4.7070   -48.7560   130.7680 ca         1 1IH       0.402800
      4 C07         -6.0390   -48.4420   130.9950 ca         1 1IH      -0.196200
      5 C09         -5.1970   -46.7670   130.0250 cc         1 1IH       0.516700
      6 C12         -2.4050   -46.1810   129.2100 c3         1 1IH       0.184800
      7 C14         -2.7410   -44.6320   127.3940 c3         1 1IH       0.096500
      8 C15         -3.5530   -44.4540   126.1070 c3         1 1IH      -0.245600
      9 C20         -1.2810   -44.1800   127.1500 c          1 1IH       0.918600
     10 N01         -8.1010   -49.2540   131.9360 nv         1 1IH      -0.978500
     11 N03         -6.2020   -50.5630   131.9990 nb         1 1IH      -0.870000
     12 N05         -4.0910   -49.8880   131.1090 nb         1 1IH      -0.725000
     13 N08         -6.3270   -47.1910   130.5190 nd         1 1IH      -0.593100
     14 N10         -4.1750   -47.6660   130.1490 na         1 1IH      -0.218000
     15 N13         -2.8460   -46.0050   127.8520 n7         1 1IH      -0.829200
     16 O17         -5.8680   -43.8040   127.3710 o          1 1IH      -0.947833
     17 O18         -5.5130   -46.2550   126.6740 o          1 1IH      -0.947833
     18 O19         -5.9600   -44.4650   124.8790 o          1 1IH      -0.947833
     19 O21         -0.4480   -45.0330   126.7790 o          1 1IH      -0.893800
     20 O22         -1.0660   -42.9560   127.2970 o          1 1IH      -0.893800
     21 P16         -5.3910   -44.7660   126.2700 p5         1 1IH       1.151700
     22 H1          -4.4860   -51.6780   132.0170 h5         1 1IH       0.006100
     23 H2          -5.0680   -45.8060   129.5530 h5         1 1IH       0.145800
     24 H3          -2.5240   -48.3190   129.0640 h1         1 1IH       0.042200
     25 H4          -2.1800   -47.7210   130.6830 h1         1 1IH       0.042200
     26 H5          -1.3130   -46.1190   129.2480 h1         1 1IH       0.008200
     27 H6          -2.7630   -45.3940   129.8980 h1         1 1IH       0.008200
     28 H7          -3.1650   -43.9400   128.1430 h1         1 1IH       0.006700
     29 H8          -3.1350   -45.1100   125.3330 hc         1 1IH       0.020700
     30 H9          -3.4100   -43.4290   125.7490 hc         1 1IH       0.020700
     31 H10         -8.5830   -49.9380   132.4940 hn         1 1IH       0.429300
     32 H11         -8.5490   -48.3690   131.7800 hn         1 1IH       0.429300
     33 H12         -3.8080   -46.3110   127.7010 hn         1 1IH       0.421800
     34 C11         -2.7690   -47.5360   129.7840 c3         1 1IH       0.046300
@<TRIPOS>BOND
     1     1     4 ar  
     2     1    10 1   
     3     1    11 ar  
     4     2    11 ar  
     5     2    12 ar  
     6     2    22 1   
     7     3     4 ar  
     8     3    12 ar  
     9     3    14 1   
    10     4    13 1   
    11     5    13 2   
    12     5    14 1   
    13     5    23 1   
    14     6    15 1   
    15     6    26 1   
    16     6    27 1   
    17     6    34 1   
    18     7     8 1   
    19     7     9 1   
    20     7    15 1   
    21     7    28 1   
    22     8    21 1   
    23     8    29 1   
    24     8    30 1   
    25     9    19 1   
    26     9    20 1   
    27    10    31 1   
    28    10    32 1   
    29    14    34 1   
    30    15    33 1   
    31    16    21 1   
    32    17    21 1   
    33    18    21 1   
    34    24    34 1   
    35    25    34 1   
@<TRIPOS>SUBSTRUCTURE
     1 1IH         1 TEMP              0 ****  ****    0 ROOT
