@<TRIPOS>MOLECULE
1IH
   34    35     1     0     0
SMALL
No Charge or Current Charge


@<TRIPOS>ATOM
      1 C02         -6.7910   -49.6660   131.5150 ca         1 1IH       0.414900
      2 C04         -4.8680   -50.9090   131.4690 ca         1 1IH       0.116900
      3 C06         -4.7180   -48.7310   130.7820 ca         1 1IH       0.074500
      4 C07         -6.0590   -48.5610   131.0250 ca         1 1IH      -0.065600
      5 C09         -5.3730   -46.6370   130.3060 cc         1 1IH       0.516700
      6 C12         -2.5100   -45.9130   129.3680 c3         1 1IH       0.184800
      7 C14         -2.6100   -44.6790   127.1890 c3         1 1IH       0.096500
      8 C15         -3.5110   -44.7000   125.9320 c3         1 1IH      -0.403400
      9 C20         -1.0530   -44.4490   126.8830 c          1 1IH       0.708000
     10 N01         -8.1200   -49.6120   131.7980 nv         1 1IH      -1.088900
     11 N03         -6.1950   -50.8480   131.7420 nb         1 1IH      -0.344000
     12 N05         -4.0900   -49.9050   130.9980 nb         1 1IH      -0.199000
     13 N08         -6.4930   -47.2580   130.7440 nd         1 1IH      -0.593100
     14 N10         -4.2810   -47.5160   130.3330 na         1 1IH      -0.247300
     15 N13         -2.9400   -45.9120   127.9560 n7         1 1IH      -0.884400
     16 O17         -5.5700   -43.1070   126.7010 o          1 1IH      -0.947833
     17 O18         -5.6390   -45.4550   127.4080 o          1 1IH      -0.947833
     18 O19         -6.0720   -44.8570   125.0700 o          1 1IH      -0.947833
     19 O21         -0.5050   -45.0850   125.9870 o          1 1IH      -0.788500
     20 O22         -0.4450   -43.6170   127.5480 o          1 1IH      -0.788500
     21 P16         -5.3000   -44.5160   126.2990 p5         1 1IH       1.309500
     22 H1          -4.3760   -51.8630   131.6490 h5         1 1IH       0.006100
     23 H2          -5.2860   -45.5970   130.0100 h5         1 1IH       0.145800
     24 H3          -2.4220   -48.0760   129.5160 h1         1 1IH       0.042200
     25 H4          -2.3440   -47.2350   131.0670 h1         1 1IH       0.042200
     26 H5          -1.4220   -45.7720   129.4180 h1         1 1IH       0.008200
     27 H6          -2.9720   -45.0770   129.9110 h1         1 1IH       0.008200
     28 H7          -2.9310   -43.8090   127.7790 h1         1 1IH       0.006700
     29 H8          -3.3580   -45.6240   125.3630 hc         1 1IH       0.020700
     30 H9          -3.2370   -43.8670   125.2760 hc         1 1IH       0.020700
     31 H10         -8.5110   -50.3340   132.3970 hn         1 1IH       0.484500
     32 H11         -8.5500   -48.6910   131.8420 hn         1 1IH       0.484500
     33 H12         -3.9810   -45.9550   127.9250 hn         1 1IH       0.477000
     34 C11         -2.8460   -47.2430   130.0920 c3         1 1IH       0.075600
@<TRIPOS>BOND
     1     1     4 ar  
     2     1    10 1   
     3     1    11 ar  
     4     2    11 ar  
     5     2    12 ar  
     6     2    22 1   
     7     3     4 ar  
     8     3    12 ar  
     9     3    14 1   
    10     4    13 1   
    11     5    13 2   
    12     5    14 1   
    13     5    23 1   
    14     6    15 1   
    15     6    26 1   
    16     6    27 1   
    17     6    34 1   
    18     7     8 1   
    19     7     9 1   
    20     7    15 1   
    21     7    28 1   
    22     8    21 1   
    23     8    29 1   
    24     8    30 1   
    25     9    19 1   
    26     9    20 1   
    27    10    31 1   
    28    10    32 1   
    29    14    34 1   
    30    15    33 1   
    31    16    21 1   
    32    17    21 1   
    33    18    21 1   
    34    24    34 1   
    35    25    34 1   
@<TRIPOS>SUBSTRUCTURE
     1 1IH         1 TEMP              0 ****  ****    0 ROOT
