@<TRIPOS>MOLECULE
1II
   63    67     1     0     0
SMALL
No Charge or Current Charge


@<TRIPOS>ATOM
      1 C07        134.2270   131.3530   142.4340 c6         1 1II       0.140700
      2 C08        133.8570   129.8580   142.2370 c6         1 1II      -0.109400
      3 C09        133.7900   132.2350   141.2230 c6         1 1II      -0.109400
      4 C10        134.0010   129.4680   140.7510 c6         1 1II       0.186800
      5 C11        132.6520   131.5720   140.4090 c6         1 1II       0.186800
      6 C13        134.5340   130.9720   137.9520 c3         1 1II      -0.116400
      7 C14        134.6400   131.8950   144.9020 ca         1 1II       0.006600
      8 C15        134.8830   130.7960   136.4510 c3         1 1II      -0.063400
      9 C16        132.5550   132.4820   144.0610 c          1 1II       0.592000
     10 C17        135.3360   129.3630   136.0420 c3         1 1II       0.034900
     11 C18        133.9450   132.5430   145.9060 ca         1 1II       0.003600
     12 C19        135.8610   131.2590   145.1660 ca         1 1II      -0.110000
     13 C20        135.6340   129.1760   134.5450 ca         1 1II      -0.090800
     14 C21        136.5300   128.8990   136.8780 ca         1 1II      -0.090800
     15 C22        134.4530   132.6970   147.1990 ca         1 1II      -0.112000
     16 C23        136.4110   131.4060   146.4600 ca         1 1II      -0.111000
     17 C24        135.7180   132.1290   147.4650 ca         1 1II      -0.109000
     18 C25        135.6970   127.8600   134.0380 ca         1 1II      -0.080500
     19 C26        137.7930   129.5070   136.7180 ca         1 1II      -0.080500
     20 C27        135.8600   130.2590   133.6600 ca         1 1II      -0.080500
     21 C28        136.3750   127.8670   137.8290 ca         1 1II      -0.080500
     22 C29        135.9730   127.6260   132.6800 ca         1 1II      -0.150750
     23 C30        138.8850   129.0900   137.4980 ca         1 1II      -0.150750
     24 C31        136.1360   130.0210   132.3020 ca         1 1II      -0.150750
     25 C32        137.4690   127.4530   138.6100 ca         1 1II      -0.150750
     26 C33        136.1910   128.7070   131.8160 ca         1 1II       0.169500
     27 C34        138.7200   128.0660   138.4420 ca         1 1II       0.169500
     28 F01        136.4570   128.4830   130.5110 f          1 1II      -0.179500
     29 F02        139.7690   127.6670   139.1930 f          1 1II      -0.179500
     30 N04        133.0340   130.2190   139.8900 n3         1 1II      -0.752600
     31 N05        133.7740   131.8330   143.7640 n          1 1II      -0.296000
     32 N06        132.7110   132.8930   145.3540 ns         1 1II      -0.504600
     33 O03        131.5740   132.6530   143.3570 o          1 1II      -0.567000
     34 H1         135.3250   131.4060   142.4430 h1         1 1II       0.052700
     35 H2         132.8250   129.6700   142.5650 hc         1 1II       0.059950
     36 H3         134.5040   129.2270   142.8600 hc         1 1II       0.059950
     37 H4         134.6540   132.3850   140.5630 hc         1 1II       0.059950
     38 H5         133.4960   133.2410   141.5500 hc         1 1II       0.059950
     39 H6         133.8390   128.3860   140.6400 h1         1 1II       0.045200
     40 H7         135.0390   129.6650   140.4470 h1         1 1II       0.045200
     41 H8         132.3500   132.2380   139.5870 h1         1 1II       0.045200
     42 H9         131.7710   131.4710   141.0590 h1         1 1II       0.045200
     43 H10        132.4320   130.4750   137.8730 h1         1 1II       0.047200
     44 H11        133.4740   129.0890   138.1680 h1         1 1II       0.047200
     45 H12        135.4170   130.7310   138.5530 hc         1 1II       0.044700
     46 H13        134.3260   132.0350   138.1260 hc         1 1II       0.044700
     47 H14        135.6840   131.5080   136.2200 hc         1 1II       0.044700
     48 H15        134.0150   131.0870   135.8460 hc         1 1II       0.044700
     49 H16        134.4870   128.7040   136.2570 hc         1 1II       0.060700
     50 H17        136.3740   130.6780   144.4040 ha         1 1II       0.122000
     51 H18        133.8900   133.2140   147.9720 ha         1 1II       0.122000
     52 H19        137.3700   130.9470   146.6920 ha         1 1II       0.117000
     53 H20        136.1520   132.2220   148.4580 ha         1 1II       0.117000
     54 H21        135.5330   127.0140   134.7030 ha         1 1II       0.117250
     55 H22        137.9270   130.3030   135.9890 ha         1 1II       0.117250
     56 H23        135.8290   131.2870   134.0070 ha         1 1II       0.117250
     57 H24        135.4090   127.3880   137.9680 ha         1 1II       0.117250
     58 H25        136.0190   126.6090   132.2980 ha         1 1II       0.132500
     59 H26        139.8570   129.5600   137.3740 ha         1 1II       0.132500
     60 H27        136.3090   130.8540   131.6260 ha         1 1II       0.132500
     61 H28        137.3480   126.6600   139.3430 ha         1 1II       0.132500
     62 H30        131.9780   133.3830   145.8560 hn         1 1II       0.467000
     63 C12        133.3160   130.1420   138.4340 c3         1 1II       0.184800
@<TRIPOS>BOND
     1     1     2 1   
     2     1     3 1   
     3     1    31 1   
     4     1    34 1   
     5     2     4 1   
     6     2    35 1   
     7     2    36 1   
     8     3     5 1   
     9     3    37 1   
    10     3    38 1   
    11     4    30 1   
    12     4    39 1   
    13     4    40 1   
    14     5    30 1   
    15     5    41 1   
    16     5    42 1   
    17     6     8 1   
    18     6    45 1   
    19     6    46 1   
    20     6    63 1   
    21     7    11 ar  
    22     7    12 ar  
    23     7    31 1   
    24     8    10 1   
    25     8    47 1   
    26     8    48 1   
    27     9    31 1   
    28     9    32 1   
    29     9    33 2   
    30    10    13 1   
    31    10    14 1   
    32    10    49 1   
    33    11    15 ar  
    34    11    32 1   
    35    12    16 ar  
    36    12    50 1   
    37    13    18 ar  
    38    13    20 ar  
    39    14    19 ar  
    40    14    21 ar  
    41    15    17 ar  
    42    15    51 1   
    43    16    17 ar  
    44    16    52 1   
    45    17    53 1   
    46    18    22 ar  
    47    18    54 1   
    48    19    23 ar  
    49    19    55 1   
    50    20    24 ar  
    51    20    56 1   
    52    21    25 ar  
    53    21    57 1   
    54    22    26 ar  
    55    22    58 1   
    56    23    27 ar  
    57    23    59 1   
    58    24    26 ar  
    59    24    60 1   
    60    25    27 ar  
    61    25    61 1   
    62    26    28 1   
    63    27    29 1   
    64    30    63 1   
    65    32    62 1   
    66    43    63 1   
    67    44    63 1   
@<TRIPOS>SUBSTRUCTURE
     1 1II         1 TEMP              0 ****  ****    0 ROOT
