@<TRIPOS>MOLECULE
1II
   63    67     1     0     0
SMALL
bcc


@<TRIPOS>ATOM
      1 C07        133.9110   131.0800   142.1600 c6         1 1II       0.140700
      2 C08        133.1820   129.7500   141.9720 c6         1 1II      -0.109400
      3 C09        133.4640   132.1250   141.1130 c6         1 1II      -0.109400
      4 C10        133.2550   129.3550   140.5050 c6         1 1II       0.186800
      5 C11        132.3110   131.6050   140.2540 c6         1 1II       0.186800
      6 C13        134.3150   131.0330   138.0100 c3         1 1II      -0.116400
      7 C14        134.8970   131.6750   144.4080 ca         1 1II       0.006600
      8 C15        134.8520   130.8400   136.5950 c3         1 1II      -0.063400
      9 C16        132.6750   131.9910   144.1430 c          1 1II       0.801500
     10 C17        135.3570   129.4210   136.2970 c3         1 1II       0.034900
     11 C18        134.3880   132.1880   145.6070 ca         1 1II       0.003600
     12 C19        136.2430   131.3860   144.2760 ca         1 1II      -0.128000
     13 C20        135.8080   129.2270   134.8610 ca         1 1II      -0.090800
     14 C21        136.4620   129.0330   137.2560 ca         1 1II      -0.090800
     15 C22        135.2000   132.4230   146.6990 ca         1 1II      -0.130000
     16 C23        137.0660   131.6240   145.3750 ca         1 1II      -0.129000
     17 C24        136.5560   132.1320   146.5650 ca         1 1II      -0.127000
     18 C25        135.8840   127.9310   134.3490 ca         1 1II      -0.098500
     19 C26        137.7100   129.6490   137.1890 ca         1 1II      -0.098500
     20 C27        136.1830   130.2780   134.0320 ca         1 1II      -0.098500
     21 C28        136.2470   128.0860   138.2520 ca         1 1II      -0.098500
     22 C29        136.3220   127.6830   133.0580 ca         1 1II      -0.168750
     23 C30        138.7140   129.3430   138.0930 ca         1 1II      -0.168750
     24 C31        136.6270   130.0540   132.7330 ca         1 1II      -0.168750
     25 C32        137.2390   127.7630   139.1710 ca         1 1II      -0.168750
     26 C33        136.6890   128.7580   132.2680 ca         1 1II       0.134400
     27 C34        138.4560   128.4050   139.0750 ca         1 1II       0.134400
     28 F01        137.1160   128.5330   131.0140 f          1 1II      -0.144400
     29 F02        139.4230   128.1100   139.9620 f          1 1II      -0.144400
     30 N04        132.5390   130.2980   139.6580 n3         1 1II      -0.752600
     31 N05        133.8340   131.5670   143.5290 n          1 1II      -0.363000
     32 N06        133.0380   132.3670   145.4110 ns         1 1II      -0.458100
     33 O03        131.5570   132.0320   143.6600 o          1 1II      -0.642500
     34 H1         134.9700   130.8770   141.9950 h1         1 1II       0.052700
     35 H2         132.1440   129.8210   142.3000 hc         1 1II       0.059950
     36 H3         133.6610   128.9800   142.5800 hc         1 1II       0.059950
     37 H4         134.3160   132.3790   140.4810 hc         1 1II       0.059950
     38 H5         133.1590   133.0550   141.5960 hc         1 1II       0.059950
     39 H6         132.8440   128.3490   140.3690 h1         1 1II       0.045200
     40 H7         134.3200   129.2820   140.2320 h1         1 1II       0.045200
     41 H8         132.0990   132.3180   139.4550 h1         1 1II       0.045200
     42 H9         131.4100   131.5760   140.8740 h1         1 1II       0.045200
     43 H10        132.2220   130.7260   137.6470 h1         1 1II       0.047200
     44 H11        133.0870   129.2470   137.9790 h1         1 1II       0.047200
     45 H12        135.0760   130.7350   138.7370 hc         1 1II       0.044700
     46 H13        134.1540   132.1030   138.1620 hc         1 1II       0.044700
     47 H14        135.6660   131.5520   136.4410 hc         1 1II       0.044700
     48 H15        134.0760   131.1000   135.8680 hc         1 1II       0.044700
     49 H16        134.5310   128.7220   136.4580 hc         1 1II       0.060700
     50 H17        136.6550   130.9900   143.3570 ha         1 1II       0.140000
     51 H18        134.7990   132.8200   147.6230 ha         1 1II       0.140000
     52 H19        138.1230   131.4060   145.2960 ha         1 1II       0.135000
     53 H20        137.2200   132.3050   147.4010 ha         1 1II       0.135000
     54 H21        135.5960   127.0940   134.9740 ha         1 1II       0.135250
     55 H22        137.9100   130.3840   136.4170 ha         1 1II       0.135250
     56 H23        136.1370   131.3000   134.3850 ha         1 1II       0.135250
     57 H24        135.2850   127.5930   138.3230 ha         1 1II       0.135250
     58 H25        136.3730   126.6730   132.6710 ha         1 1II       0.150500
     59 H26        139.6810   129.8270   138.0360 ha         1 1II       0.150500
     60 H27        136.9160   130.8800   132.0970 ha         1 1II       0.150500
     61 H28        137.0610   127.0290   139.9450 ha         1 1II       0.150500
     62 H30        132.3830   132.7240   146.0880 hn         1 1II       0.353500
     63 C12        133.0010   130.2950   138.2850 c3         1 1II       0.184800
@<TRIPOS>BOND
     1     1     2 1   
     2     1     3 1   
     3     1    31 1   
     4     1    34 1   
     5     2     4 1   
     6     2    35 1   
     7     2    36 1   
     8     3     5 1   
     9     3    37 1   
    10     3    38 1   
    11     4    30 1   
    12     4    39 1   
    13     4    40 1   
    14     5    30 1   
    15     5    41 1   
    16     5    42 1   
    17     6     8 1   
    18     6    45 1   
    19     6    46 1   
    20     6    63 1   
    21     7    11 ar  
    22     7    12 ar  
    23     7    31 1   
    24     8    10 1   
    25     8    47 1   
    26     8    48 1   
    27     9    31 1   
    28     9    32 1   
    29     9    33 2   
    30    10    13 1   
    31    10    14 1   
    32    10    49 1   
    33    11    15 ar  
    34    11    32 1   
    35    12    16 ar  
    36    12    50 1   
    37    13    18 ar  
    38    13    20 ar  
    39    14    19 ar  
    40    14    21 ar  
    41    15    17 ar  
    42    15    51 1   
    43    16    17 ar  
    44    16    52 1   
    45    17    53 1   
    46    18    22 ar  
    47    18    54 1   
    48    19    23 ar  
    49    19    55 1   
    50    20    24 ar  
    51    20    56 1   
    52    21    25 ar  
    53    21    57 1   
    54    22    26 ar  
    55    22    58 1   
    56    23    27 ar  
    57    23    59 1   
    58    24    26 ar  
    59    24    60 1   
    60    25    27 ar  
    61    25    61 1   
    62    26    28 1   
    63    27    29 1   
    64    30    63 1   
    65    32    62 1   
    66    43    63 1   
    67    44    63 1   
@<TRIPOS>SUBSTRUCTURE
     1 1II         1 TEMP              0 ****  ****    0 ROOT
