@<TRIPOS>MOLECULE
1IJ
   47    49     1     0     0
SMALL
No Charge or Current Charge


@<TRIPOS>ATOM
      1 C13        -16.3870    -7.4070     8.2090 ca         1 1IJ       0.121100
      2 C18        -17.0410   -10.2760     8.0190 ca         1 1IJ       0.148400
      3 C19        -14.8110   -10.5240     7.1430 ca         1 1IJ       0.148400
      4 C21        -16.3630    -6.5300     9.3050 ca         1 1IJ      -0.124000
      5 C22        -17.2970    -5.4810     9.3970 ca         1 1IJ      -0.052300
      6 C23        -18.0850    -5.1060    11.7800 c3         1 1IJ       0.104000
      7 C24        -18.4160    -2.2710    15.0650 ca         1 1IJ      -0.100000
      8 C25        -18.5530    -1.3410    16.1090 ca         1 1IJ      -0.094000
      9 C26        -18.2700    -6.1840     7.2710 ca         1 1IJ      -0.078000
     10 C27        -17.5150    -1.1610    17.0350 ca         1 1IJ      -0.091000
     11 C28        -17.3350    -7.2280     7.1840 ca         1 1IJ      -0.171000
     12 C1         -14.0790    -2.3480    17.9170 c3         1 1IJ       0.510000
     13 C2         -16.3330   -12.2270     7.0610 ca         1 1IJ       0.365900
     14 N4         -15.0920   -11.7940     6.7830 nb         1 1IJ      -0.234000
     15 N5         -17.3230   -11.5460     7.6600 nb         1 1IJ      -0.234000
     16 C6         -17.2300    -3.0370    14.9350 ca         1 1IJ      -0.120600
     17 C8         -16.1920    -2.8420    15.8780 ca         1 1IJ      -0.102000
     18 C9         -15.7730    -9.7070     7.7670 ca         1 1IJ      -0.079900
     19 O11        -15.4540    -8.4180     8.1400 os         1 1IJ      -0.236200
     20 C12        -16.3300    -1.9050    16.9290 ca         1 1IJ       0.124100
     21 N14        -18.0890    -4.2010    12.9340 ns         1 1IJ      -0.501900
     22 F15        -13.3530    -2.1280    16.7970 f          1 1IJ      -0.103000
     23 F16        -13.3370    -1.9090    18.9580 f          1 1IJ      -0.103000
     24 F17        -14.2170    -3.6850    18.0700 f          1 1IJ      -0.103000
     25 C29        -17.2780    -4.5410    10.5940 c3         1 1IJ      -0.058100
     26 C30        -18.2530    -5.3150     8.3760 ca         1 1IJ      -0.138000
     27 H33        -17.8350    -9.7200     8.5160 h4         1 1IJ       0.036600
     28 H34        -13.8080   -10.1590     6.9270 h4         1 1IJ       0.036600
     29 H37        -15.6200    -6.6720    10.0860 ha         1 1IJ       0.137000
     30 H39        -17.6660    -6.0740    12.0830 h1         1 1IJ       0.062200
     31 H38        -19.1230    -5.2740    11.4640 h1         1 1IJ       0.062200
     32 H40        -19.2410    -2.3820    14.3670 ha         1 1IJ       0.120000
     33 H41        -19.4670    -0.7580    16.2000 ha         1 1IJ       0.126000
     34 H42        -19.0070    -6.0450     6.4820 ha         1 1IJ       0.115000
     35 H43        -17.6260    -0.4400    17.8410 ha         1 1IJ       0.140000
     36 H44        -17.3440    -7.8920     6.3230 ha         1 1IJ       0.125000
     37 H31        -15.2840    -3.4280    15.7780 ha         1 1IJ       0.157000
     38 H32        -18.9070    -3.6280    13.0920 hn         1 1IJ       0.314500
     39 H35        -15.8480   -14.1210     6.4430 hn         1 1IJ       0.497000
     40 H36        -17.4540   -13.9460     7.0730 hn         1 1IJ       0.497000
     41 H46        -16.2440    -4.3610    10.9110 hc         1 1IJ       0.058200
     42 H45        -17.6880    -3.5630    10.3150 hc         1 1IJ       0.058200
     43 H47        -18.9830    -4.5110     8.4360 ha         1 1IJ       0.112000
     44 N20        -16.6160   -13.5040     6.7000 nv         1 1IJ      -1.053900
     45 C3         -17.0430    -4.0510    13.8210 c          1 1IJ       0.604700
     46 O7         -15.3520    -1.6710    17.8800 os         1 1IJ      -0.405100
     47 O10        -16.0180    -4.7110    13.7080 o          1 1IJ      -0.594100
@<TRIPOS>BOND
     1     1     4 ar  
     2     1    11 ar  
     3     1    19 1   
     4     2    15 ar  
     5     2    18 ar  
     6     2    27 1   
     7     3    14 ar  
     8     3    18 ar  
     9     3    28 1   
    10     4     5 ar  
    11     4    29 1   
    12     5    25 1   
    13     5    26 ar  
    14     6    21 1   
    15     6    25 1   
    16     6    30 1   
    17     6    31 1   
    18     7     8 ar  
    19     7    16 ar  
    20     7    32 1   
    21     8    10 ar  
    22     8    33 1   
    23     9    11 ar  
    24     9    26 ar  
    25     9    34 1   
    26    10    20 ar  
    27    10    35 1   
    28    11    36 1   
    29    12    22 1   
    30    12    23 1   
    31    12    24 1   
    32    12    46 1   
    33    13    14 ar  
    34    13    15 ar  
    35    13    44 1   
    36    16    17 ar  
    37    16    45 1   
    38    17    20 ar  
    39    17    37 1   
    40    18    19 1   
    41    20    46 1   
    42    21    38 1   
    43    21    45 1   
    44    25    41 1   
    45    25    42 1   
    46    26    43 1   
    47    39    44 1   
    48    40    44 1   
    49    45    47 2   
@<TRIPOS>SUBSTRUCTURE
     1 1IJ         1 TEMP              0 ****  ****    0 ROOT
