@<TRIPOS>MOLECULE
1IJ
   47    49     1     0     0
SMALL
abcg2


@<TRIPOS>ATOM
      1 C13        -16.4490    -7.7400     8.7170 ca         1 1IJ       0.121100
      2 C18        -17.0770   -10.7880     8.2910 ca         1 1IJ       0.148400
      3 C19        -15.0660   -10.3710     7.1170 ca         1 1IJ       0.148400
      4 C21        -16.3670    -6.7960     9.7350 ca         1 1IJ      -0.124000
      5 C22        -17.0540    -5.5900     9.6320 ca         1 1IJ      -0.052300
      6 C23        -18.1570    -4.8540    11.7620 c3         1 1IJ       0.104000
      7 C24        -18.6040    -2.2830    15.2410 ca         1 1IJ      -0.100000
      8 C25        -18.6210    -1.3330    16.2560 ca         1 1IJ      -0.094000
      9 C26        -17.9010    -6.2940     7.4820 ca         1 1IJ      -0.078000
     10 C27        -17.5050    -1.1400    17.0560 ca         1 1IJ      -0.091000
     11 C28        -17.2140    -7.5020     7.5810 ca         1 1IJ      -0.171000
     12 C1         -14.0560    -2.0230    17.4450 c3         1 1IJ       0.510000
     13 C2         -16.3720   -12.1720     6.6240 ca         1 1IJ       0.365900
     14 N4         -15.2570   -11.4610     6.3800 nb         1 1IJ      -0.234000
     15 N5         -17.2920   -11.8770     7.5640 nb         1 1IJ      -0.234000
     16 C6         -17.4640    -3.0570    15.0330 ca         1 1IJ      -0.120600
     17 C8         -16.3430    -2.8860    15.8480 ca         1 1IJ      -0.102000
     18 C9         -15.9620    -9.9830     8.0980 ca         1 1IJ      -0.079900
     19 O11        -15.7070    -8.8920     8.9030 os         1 1IJ      -0.236200
     20 C12        -16.3780    -1.9210    16.8380 ca         1 1IJ       0.124100
     21 N14        -18.1420    -3.9260    12.8790 ns         1 1IJ      -0.501900
     22 F15        -13.6360    -1.5740    16.2480 f          1 1IJ      -0.103000
     23 F16        -13.2760    -1.4920    18.3880 f          1 1IJ      -0.103000
     24 F17        -13.8600    -3.3570    17.4560 f          1 1IJ      -0.103000
     25 C29        -17.0160    -4.5980    10.7640 c3         1 1IJ      -0.058100
     26 C30        -17.8250    -5.3450     8.4930 ca         1 1IJ      -0.138000
     27 H33        -17.8060   -10.5400     9.0550 h4         1 1IJ       0.036600
     28 H34        -14.1690    -9.7880     6.9320 h4         1 1IJ       0.036600
     29 H37        -15.7640    -7.0140    10.6080 ha         1 1IJ       0.137000
     30 H39        -18.0810    -5.8660    12.1580 h1         1 1IJ       0.062200
     31 H38        -19.1200    -4.7570    11.2590 h1         1 1IJ       0.062200
     32 H40        -19.4890    -2.4320    14.6370 ha         1 1IJ       0.120000
     33 H41        -19.5090    -0.7390    16.4270 ha         1 1IJ       0.126000
     34 H42        -18.4950    -6.0970     6.5980 ha         1 1IJ       0.115000
     35 H43        -17.4970    -0.4000    17.8460 ha         1 1IJ       0.140000
     36 H44        -17.2710    -8.2330     6.7880 ha         1 1IJ       0.125000
     37 H31        -15.4810    -3.5130    15.6850 ha         1 1IJ       0.157000
     38 H32        -18.6130    -3.0430    12.7620 hn         1 1IJ       0.314500
     39 H35        -15.8470   -13.6140     5.2890 hn         1 1IJ       0.497000
     40 H36        -17.3130   -13.9090     6.1410 hn         1 1IJ       0.497000
     41 H46        -16.0660    -4.6680    11.2960 hc         1 1IJ       0.058200
     42 H45        -17.1100    -3.5810    10.3780 hc         1 1IJ       0.058200
     43 H47        -18.3640    -4.4100     8.4010 ha         1 1IJ       0.112000
     44 N20        -16.6070   -13.2570     5.8450 nv         1 1IJ      -1.053900
     45 C3         -17.3870    -4.1210    13.9770 c          1 1IJ       0.604700
     46 O7         -15.3220    -1.6720    17.7250 os         1 1IJ      -0.405100
     47 O10        -16.6690    -5.1120    14.1260 o          1 1IJ      -0.594100
@<TRIPOS>BOND
     1     1     4 ar  
     2     1    11 ar  
     3     1    19 1   
     4     2    15 ar  
     5     2    18 ar  
     6     2    27 1   
     7     3    14 ar  
     8     3    18 ar  
     9     3    28 1   
    10     4     5 ar  
    11     4    29 1   
    12     5    25 1   
    13     5    26 ar  
    14     6    21 1   
    15     6    25 1   
    16     6    30 1   
    17     6    31 1   
    18     7     8 ar  
    19     7    16 ar  
    20     7    32 1   
    21     8    10 ar  
    22     8    33 1   
    23     9    11 ar  
    24     9    26 ar  
    25     9    34 1   
    26    10    20 ar  
    27    10    35 1   
    28    11    36 1   
    29    12    22 1   
    30    12    23 1   
    31    12    24 1   
    32    12    46 1   
    33    13    14 ar  
    34    13    15 ar  
    35    13    44 1   
    36    16    17 ar  
    37    16    45 1   
    38    17    20 ar  
    39    17    37 1   
    40    18    19 1   
    41    20    46 1   
    42    21    38 1   
    43    21    45 1   
    44    25    41 1   
    45    25    42 1   
    46    26    43 1   
    47    39    44 1   
    48    40    44 1   
    49    45    47 2   
@<TRIPOS>SUBSTRUCTURE
     1 1IJ         1 TEMP              0 ****  ****    0 ROOT
