@<TRIPOS>MOLECULE
1IK
   37    38     1     0     0
SMALL
No Charge or Current Charge


@<TRIPOS>ATOM
      1 C02         -8.2580   -51.1550   131.6980 ca         1 1IK       0.480900
      2 C04         -6.3270   -52.0460   130.8500 ca         1 1IK       0.179900
      3 C06         -6.1470   -50.0880   132.0160 ca         1 1IK       0.152500
      4 C07         -7.5040   -50.0850   132.2290 ca         1 1IK      -0.039600
      5 C09         -6.7890   -48.2910   133.1930 cc         1 1IK       0.421700
      6 C12         -3.9280   -47.4750   131.6070 c3         1 1IK      -0.093400
      7 C13         -4.1270   -47.9470   130.1470 c3         1 1IK       0.166800
      8 C15         -4.1880   -45.5840   129.0970 c3         1 1IK       0.090500
      9 C16         -3.3390   -44.5700   128.1900 c          1 1IK       0.749000
     10 C19         -5.6790   -45.6900   128.6650 c3         1 1IK      -0.402400
     11 N01         -9.6080   -51.2580   131.8420 nv         1 1IK      -1.072900
     12 N03         -7.6700   -52.1410   131.0020 nb         1 1IK      -0.328000
     13 N05         -5.5250   -51.0640   131.3240 nb         1 1IK      -0.232000
     14 N08         -7.9320   -48.9680   132.9650 nd         1 1IK      -0.546100
     15 N10         -5.6980   -48.9530   132.6290 na         1 1IK      -0.273300
     16 N14         -3.5960   -46.9740   129.1600 n7         1 1IK      -0.878400
     17 O17         -2.7710   -43.6300   128.7380 o          1 1IK      -0.787500
     18 O18         -3.1020   -44.8730   127.0220 o          1 1IK      -0.787500
     19 O21         -8.0260   -44.3500   128.5460 o          1 1IK      -0.950833
     20 O22         -6.1280   -43.2680   127.4710 o          1 1IK      -0.950833
     21 O23         -6.2810   -43.3390   129.9160 o          1 1IK      -0.950833
     22 P20         -6.5640   -44.0700   128.6490 p5         1 1IK       1.312500
     23 H1          -5.8430   -52.8420   130.2880 h5         1 1IK       0.001100
     24 H2          -6.6890   -47.3590   133.7360 h5         1 1IK       0.056800
     25 H3          -3.6510   -49.4370   132.4920 h1         1 1IK       0.022200
     26 H4          -4.0530   -48.1640   133.6530 h1         1 1IK       0.022200
     27 H5          -2.8810   -47.1840   131.7520 hc         1 1IK       0.044700
     28 H6          -4.5400   -46.5850   131.7990 hc         1 1IK       0.044700
     29 H7          -5.1900   -48.1560   129.9680 h1         1 1IK       0.024200
     30 H8          -3.5950   -48.9010   130.0250 h1         1 1IK       0.024200
     31 H9          -4.1720   -45.1430   130.1030 h1         1 1IK       0.048700
     32 H10         -6.2380   -46.3280   129.3580 hc         1 1IK       0.001200
     33 H11         -5.7550   -46.1390   127.6680 hc         1 1IK       0.001200
     34 H12        -10.1050   -51.8770   131.2080 hn         1 1IK       0.485500
     35 H13        -10.1050   -50.4300   132.1620 hn         1 1IK       0.485500
     36 H14         -3.6860   -47.3790   128.2220 hn         1 1IK       0.383000
     37 C11         -4.2810   -48.5530   132.6520 c3         1 1IK       0.092600
@<TRIPOS>BOND
     1     1     4 ar  
     2     1    11 1   
     3     1    12 ar  
     4     2    12 ar  
     5     2    13 ar  
     6     2    23 1   
     7     3     4 ar  
     8     3    13 ar  
     9     3    15 1   
    10     4    14 1   
    11     5    14 2   
    12     5    15 1   
    13     5    24 1   
    14     6     7 1   
    15     6    27 1   
    16     6    28 1   
    17     6    37 1   
    18     7    16 1   
    19     7    29 1   
    20     7    30 1   
    21     8     9 1   
    22     8    10 1   
    23     8    16 1   
    24     8    31 1   
    25     9    17 1   
    26     9    18 1   
    27    10    22 1   
    28    10    32 1   
    29    10    33 1   
    30    11    34 1   
    31    11    35 1   
    32    15    37 1   
    33    16    36 1   
    34    19    22 1   
    35    20    22 1   
    36    21    22 1   
    37    25    37 1   
    38    26    37 1   
@<TRIPOS>SUBSTRUCTURE
     1 1IK         1 TEMP              0 ****  ****    0 ROOT
