@<TRIPOS>MOLECULE
1IK
   37    38     1     0     0
SMALL
bcc


@<TRIPOS>ATOM
      1 C02         -8.7030   -49.6390   131.6510 ca         1 1IK       0.809200
      2 C04         -7.3490   -51.2610   130.7460 ca         1 1IK       0.705900
      3 C06         -6.3380   -49.6480   131.8400 ca         1 1IK       0.480800
      4 C07         -7.5400   -49.0290   132.1490 ca         1 1IK      -0.170200
      5 C09         -6.0320   -47.8170   132.9790 cc         1 1IK       0.421700
      6 C12         -3.2320   -47.9390   131.5650 c3         1 1IK      -0.093400
      7 C13         -3.4290   -48.0080   130.0500 c3         1 1IK       0.166800
      8 C15         -4.4460   -45.8960   129.4000 c3         1 1IK       0.090500
      9 C16         -4.0290   -44.4220   129.5910 c          1 1IK       0.959600
     10 C19         -5.2900   -46.1380   128.1360 c3         1 1IK      -0.244600
     11 N01         -9.9220   -49.1260   131.8350 nv         1 1IK      -0.962500
     12 N03         -8.5690   -50.7730   130.9550 nb         1 1IK      -0.854000
     13 N05         -6.1880   -50.7730   131.1430 nb         1 1IK      -0.758000
     14 N08         -7.3270   -47.8830   132.8650 nd         1 1IK      -0.546100
     15 N10         -5.3740   -48.8540   132.3830 na         1 1IK      -0.244000
     16 N14         -3.2100   -46.7000   129.4560 n7         1 1IK      -0.823200
     17 O17         -4.2810   -43.8920   130.6960 o          1 1IK      -0.892800
     18 O18         -3.4290   -43.8800   128.6380 o          1 1IK      -0.892800
     19 O21         -7.7410   -46.3030   127.0030 o          1 1IK      -0.950833
     20 O22         -7.5920   -45.3580   129.3970 o          1 1IK      -0.950833
     21 O23         -7.2030   -47.8640   128.9720 o          1 1IK      -0.950833
     22 P20         -7.1200   -46.4340   128.4050 p5         1 1IK       1.154700
     23 H1          -7.3100   -52.1830   130.1740 h5         1 1IK       0.001100
     24 H2          -5.4930   -47.0360   133.4960 h5         1 1IK       0.056800
     25 H3          -3.7460   -50.0210   131.9000 h1         1 1IK       0.022200
     26 H4          -3.5650   -49.0800   133.3700 h1         1 1IK       0.022200
     27 H5          -2.1640   -47.9840   131.7950 hc         1 1IK       0.044700
     28 H6          -3.5730   -46.9680   131.9360 hc         1 1IK       0.044700
     29 H7          -4.4270   -48.4060   129.8140 h1         1 1IK       0.024200
     30 H8          -2.7130   -48.7210   129.6340 h1         1 1IK       0.024200
     31 H9          -5.0280   -46.1870   130.2800 h1         1 1IK       0.048700
     32 H10         -4.9000   -47.0180   127.6080 hc         1 1IK       0.001200
     33 H11         -5.1380   -45.3020   127.4450 hc         1 1IK       0.001200
     34 H12        -10.7340   -49.6100   131.4910 hn         1 1IK       0.430300
     35 H13        -10.0580   -48.2950   132.3830 hn         1 1IK       0.430300
     36 H14         -2.8470   -46.8050   128.5180 hn         1 1IK       0.327800
     37 C11         -3.9330   -49.0430   132.3440 c3         1 1IK       0.063300
@<TRIPOS>BOND
     1     1     4 ar  
     2     1    11 1   
     3     1    12 ar  
     4     2    12 ar  
     5     2    13 ar  
     6     2    23 1   
     7     3     4 ar  
     8     3    13 ar  
     9     3    15 1   
    10     4    14 1   
    11     5    14 2   
    12     5    15 1   
    13     5    24 1   
    14     6     7 1   
    15     6    27 1   
    16     6    28 1   
    17     6    37 1   
    18     7    16 1   
    19     7    29 1   
    20     7    30 1   
    21     8     9 1   
    22     8    10 1   
    23     8    16 1   
    24     8    31 1   
    25     9    17 1   
    26     9    18 1   
    27    10    22 1   
    28    10    32 1   
    29    10    33 1   
    30    11    34 1   
    31    11    35 1   
    32    15    37 1   
    33    16    36 1   
    34    19    22 1   
    35    20    22 1   
    36    21    22 1   
    37    25    37 1   
    38    26    37 1   
@<TRIPOS>SUBSTRUCTURE
     1 1IK         1 TEMP              0 ****  ****    0 ROOT
