@<TRIPOS>MOLECULE
1IM
   43    45     1     0     0
SMALL
abcg2


@<TRIPOS>ATOM
      1 C13         27.8430    17.5560    16.9180 ca         1 1IM      -0.140000
      2 C15         25.4490    17.5770    17.1970 ca         1 1IM      -0.089000
      3 C16         25.4220    18.8590    16.6670 ca         1 1IM      -0.161300
      4 C17         26.5860    19.5080    16.2610 ca         1 1IM      -0.088000
      5 C18         24.1250    19.6020    16.5270 c3         1 1IM       0.343300
      6 C22         30.8620    24.8260    10.5810 cg         1 1IM      -0.100000
      7 C23         30.8070    26.1190    10.0000 ca         1 1IM      -0.023000
      8 C24         30.9100    26.2860     8.6090 ca         1 1IM       0.356900
      9 C26         30.7090    28.5590     8.7680 ca         1 1IM       0.340900
     10 C27         30.5990    28.5050    10.1520 ca         1 1IM      -0.164000
     11 C28         30.6480    27.2720    10.7800 ca         1 1IM      -0.052000
     12 C1          30.9040    21.0540    13.6710 ca         1 1IM      -0.089300
     13 C2          31.0600    19.9190    12.8730 ca         1 1IM      -0.096000
     14 C3          31.1610    20.0370    11.4910 ca         1 1IM      -0.110000
     15 C4          31.1080    21.2850    10.8870 ca         1 1IM      -0.079000
     16 C5          30.9540    22.4360    11.6740 ca         1 1IM       0.030000
     17 C6          30.8520    22.3040    13.0670 ca         1 1IM      -0.062000
     18 C7          30.9040    23.7240    11.0750 ch         1 1IM      -0.096000
     19 C8          30.7540    20.9180    15.1680 c3         1 1IM      -0.106100
     20 C9          29.2950    20.6700    15.5330 c          1 1IM       0.605100
     21 O11         28.4450    21.5390    15.3890 o          1 1IM      -0.568100
     22 C12         27.8090    18.8530    16.3880 ca         1 1IM      -0.023000
     23 C14         26.6760    16.9290    17.3160 ca         1 1IM      -0.087000
     24 F19         23.9310    20.0530    15.2630 f          1 1IM      -0.111667
     25 F20         23.0510    18.8550    16.8430 f          1 1IM      -0.111667
     26 F21         24.0810    20.7000    17.3240 f          1 1IM      -0.111667
     27 N25         30.8630    27.4700     8.0050 nb         1 1IM      -0.665000
     28 H36         28.7940    17.0470    17.0120 ha         1 1IM       0.114000
     29 H38         24.5380    17.0880    17.5090 ha         1 1IM       0.135000
     30 H39         26.5480    20.5040    15.8530 ha         1 1IM       0.166000
     31 H40         31.0330    25.4140     7.9760 h4         1 1IM       0.025100
     32 H41         30.6730    29.5100     8.2500 h4         1 1IM       0.022100
     33 H42         30.4770    29.4150    10.7240 ha         1 1IM       0.126000
     34 H43         30.5670    27.1890    11.8560 ha         1 1IM       0.127000
     35 H29         31.1030    18.9410    13.3370 ha         1 1IM       0.109000
     36 H30         31.2840    19.1510    10.8820 ha         1 1IM       0.119000
     37 H31         31.1900    21.3810     9.8120 ha         1 1IM       0.123000
     38 H32         30.7350    23.1920    13.6750 ha         1 1IM       0.127000
     39 H34         31.3910    20.1150    15.5390 hc         1 1IM       0.070200
     40 H33         31.0500    21.8450    15.6610 hc         1 1IM       0.070200
     41 H35         29.8320    18.8060    16.0940 hn         1 1IM       0.151000
     42 H37         26.7190    15.9280    17.7240 ha         1 1IM       0.122000
     43 N10         29.0350    19.4170    16.0000 ns         1 1IM      -0.148000
@<TRIPOS>BOND
     1     1    22 ar  
     2     1    23 ar  
     3     1    28 1   
     4     2     3 ar  
     5     2    23 ar  
     6     2    29 1   
     7     3     4 ar  
     8     3     5 1   
     9     4    22 ar  
    10     4    30 1   
    11     5    24 1   
    12     5    25 1   
    13     5    26 1   
    14     6     7 1   
    15     6    18 3   
    16     7     8 ar  
    17     7    11 ar  
    18     8    27 ar  
    19     8    31 1   
    20     9    10 ar  
    21     9    27 ar  
    22     9    32 1   
    23    10    11 ar  
    24    10    33 1   
    25    11    34 1   
    26    12    13 ar  
    27    12    17 ar  
    28    12    19 1   
    29    13    14 ar  
    30    13    35 1   
    31    14    15 ar  
    32    14    36 1   
    33    15    16 ar  
    34    15    37 1   
    35    16    17 ar  
    36    16    18 1   
    37    17    38 1   
    38    19    20 1   
    39    19    39 1   
    40    19    40 1   
    41    20    21 2   
    42    20    43 1   
    43    22    43 1   
    44    23    42 1   
    45    41    43 1   
@<TRIPOS>SUBSTRUCTURE
     1 1IM         1 TEMP              0 ****  ****    0 ROOT
