@<TRIPOS>MOLECULE
1IM
   43    45     1     0     0
SMALL
No Charge or Current Charge


@<TRIPOS>ATOM
      1 C13         27.7120    17.4830    16.4590 ca         1 1IM      -0.140000
      2 C15         25.3410    17.5760    16.9960 ca         1 1IM      -0.089000
      3 C16         25.3410    18.9740    16.7990 ca         1 1IM      -0.161300
      4 C17         26.5480    19.6160    16.4400 ca         1 1IM      -0.088000
      5 C18         24.0630    19.8010    16.9930 c3         1 1IM       0.343300
      6 C22         30.9050    24.7720    10.5470 cg         1 1IM      -0.100000
      7 C23         30.8000    26.0670     9.9380 ca         1 1IM      -0.023000
      8 C24         31.2630    26.2870     8.6230 ca         1 1IM       0.356900
      9 C26         30.6400    28.5210     8.6850 ca         1 1IM       0.340900
     10 C27         30.1530    28.3910     9.9980 ca         1 1IM      -0.164000
     11 C28         30.2320    27.1440    10.6410 ca         1 1IM      -0.052000
     12 C1          31.0240    21.0420    13.7400 ca         1 1IM      -0.089300
     13 C2          31.2740    19.8920    12.9660 ca         1 1IM      -0.096000
     14 C3          31.4320    19.9970    11.5740 ca         1 1IM      -0.110000
     15 C4          31.3400    21.2510    10.9460 ca         1 1IM      -0.079000
     16 C5          31.0880    22.4040    11.7110 ca         1 1IM       0.030000
     17 C6          30.9310    22.2970    13.1060 ca         1 1IM      -0.062000
     18 C7          30.9920    23.6770    11.0770 ch         1 1IM      -0.096000
     19 C8          30.8450    20.9290    15.2520 c3         1 1IM      -0.106100
     20 C9          29.3620    20.7660    15.6130 c          1 1IM       0.605100
     21 O11         28.5980    21.7250    15.6240 o          1 1IM      -0.568100
     22 C12         27.7400    18.8760    16.2640 ca         1 1IM      -0.023000
     23 C14         26.5210    16.8370    16.8240 ca         1 1IM      -0.087000
     24 F19         23.9370    20.7640    16.0520 f          1 1IM      -0.111667
     25 F20         22.9390    19.0510    16.9290 f          1 1IM      -0.111667
     26 F21         24.0570    20.4200    18.1950 f          1 1IM      -0.111667
     27 N25         31.1880    27.4900     7.9990 nb         1 1IM      -0.665000
     28 H36         28.6180    16.8960    16.3290 ha         1 1IM       0.114000
     29 H38         24.4300    17.0560    17.2860 ha         1 1IM       0.135000
     30 H39         26.5390    20.6930    16.3050 ha         1 1IM       0.166000
     31 H40         31.7090    25.4760     8.0480 h4         1 1IM       0.025100
     32 H41         30.5890    29.4770     8.1670 h4         1 1IM       0.022100
     33 H42         29.7220    29.2500    10.5040 ha         1 1IM       0.126000
     34 H43         29.8620    27.0180    11.6570 ha         1 1IM       0.127000
     35 H29         31.3460    18.9160    13.4410 ha         1 1IM       0.109000
     36 H30         31.6250    19.1060    10.9800 ha         1 1IM       0.119000
     37 H31         31.4620    21.3250     9.8680 ha         1 1IM       0.123000
     38 H32         30.7330    23.1890    13.6960 ha         1 1IM       0.127000
     39 H34         31.4110    20.0640    15.6160 hc         1 1IM       0.070200
     40 H33         31.2250    21.8370    15.7350 hc         1 1IM       0.070200
     41 H35         29.7420    18.7910    15.8330 hn         1 1IM       0.151000
     42 H37         26.5130    15.7590    16.9760 ha         1 1IM       0.122000
     43 N10         28.9860    19.4590    15.8990 ns         1 1IM      -0.148000
@<TRIPOS>BOND
     1     1    22 ar  
     2     1    23 ar  
     3     1    28 1   
     4     2     3 ar  
     5     2    23 ar  
     6     2    29 1   
     7     3     4 ar  
     8     3     5 1   
     9     4    22 ar  
    10     4    30 1   
    11     5    24 1   
    12     5    25 1   
    13     5    26 1   
    14     6     7 1   
    15     6    18 3   
    16     7     8 ar  
    17     7    11 ar  
    18     8    27 ar  
    19     8    31 1   
    20     9    10 ar  
    21     9    27 ar  
    22     9    32 1   
    23    10    11 ar  
    24    10    33 1   
    25    11    34 1   
    26    12    13 ar  
    27    12    17 ar  
    28    12    19 1   
    29    13    14 ar  
    30    13    35 1   
    31    14    15 ar  
    32    14    36 1   
    33    15    16 ar  
    34    15    37 1   
    35    16    17 ar  
    36    16    18 1   
    37    17    38 1   
    38    19    20 1   
    39    19    39 1   
    40    19    40 1   
    41    20    21 2   
    42    20    43 1   
    43    22    43 1   
    44    23    42 1   
    45    41    43 1   
@<TRIPOS>SUBSTRUCTURE
     1 1IM         1 TEMP              0 ****  ****    0 ROOT
