@<TRIPOS>MOLECULE
1IN
   96    99     1     0     0
SMALL
No Charge or Current Charge


@<TRIPOS>ATOM
      1 C1           0.8110    -1.1980     3.5220 c6         1 1IN       0.094000
      2 C2           0.9630    -0.2490     2.2930 c6         1 1IN       0.086500
      3 C3           1.8780    -0.8810     1.1820 c          1 1IN       0.600100
      4 O4          -1.1130     0.5990    -7.7750 oh         1 1IN      -0.639000
      5 O5           2.0250    -0.4010     5.9530 o          1 1IN      -0.603100
      6 C7           2.2260    -4.5620     0.3910 c3         1 1IN      -0.104767
      7 C8          -1.1010     0.9220     3.0000 c6         1 1IN       0.159800
      8 C9          -1.1980     0.0300     4.2660 c6         1 1IN       0.092000
      9 C11         -0.5360     0.1190    -0.6740 c3         1 1IN       0.162300
     10 C12         -1.1040     0.8500    -1.9160 c3         1 1IN      -0.102400
     11 C13         -0.7410     0.2050    -3.2890 c3         1 1IN      -0.127700
     12 C14         -1.3480    -1.2040    -3.5250 c3         1 1IN      -0.025100
     13 C15         -0.9480    -1.7870    -4.8770 ca         1 1IN      -0.088300
     14 C16          0.4030    -2.0810    -5.1540 ca         1 1IN      -0.110000
     15 C19         -1.5520    -2.5620    -7.1120 ca         1 1IN      -0.112000
     16 C20         -1.9230    -2.0330    -5.8630 ca         1 1IN      -0.110000
     17 C21         -1.1220     1.1460    -4.4500 c          1 1IN       0.596100
     18 C22         -0.2840     2.4840    -6.3490 c5         1 1IN       0.080700
     19 C24          1.2740     1.2530    -7.7870 c5         1 1IN      -0.119400
     20 C27          0.8460     0.7680     8.2820 c3         1 1IN      -0.016100
     21 C30          1.0110     3.3420    -6.4640 c5         1 1IN      -0.086700
     22 C32         -1.0080     0.7720    10.0270 ca         1 1IN      -0.072000
     23 C33         -1.7550     1.4660    10.9930 ca         1 1IN      -0.162000
     24 C34         -1.4700     2.8200    11.2410 ca         1 1IN       0.333900
     25 C35          0.2210     2.8270     9.6560 ca         1 1IN       0.335900
     26 N1           0.1380    -0.5040     4.6550 n          1 1IN      -0.405800
     27 O1           2.5370    -0.1710     0.4310 o          1 1IN      -0.587100
     28 N2           1.8700    -2.2650     1.0760 ns         1 1IN      -0.510900
     29 C4           2.5780    -3.0880     0.0860 c3         1 1IN       0.139400
     30 C5           2.1030    -2.7430    -1.3500 c3         1 1IN      -0.104767
     31 C6           4.1110    -2.8980     0.2130 c3         1 1IN      -0.104767
     32 N3          -0.4250     0.2160     1.8690 n3         1 1IN      -0.717600
     33 O2          -1.3490    -1.0060    -0.3290 oh         1 1IN      -0.642000
     34 C17          0.7740    -2.6030    -6.4040 ca         1 1IN      -0.112000
     35 C18         -0.2030    -2.8430    -7.3840 ca         1 1IN      -0.112000
     36 O3          -2.2700     1.5230    -4.6460 o          1 1IN      -0.602100
     37 N4          -0.0570     1.5240    -5.2440 ns         1 1IN      -0.503900
     38 C23         -0.2180     1.7070    -7.7050 c5         1 1IN       0.155300
     39 C25          2.0810     2.3220    -6.9740 c5         1 1IN      -0.079400
     40 C28          0.0040     1.4680     9.3410 ca         1 1IN      -0.137300
     41 N5          -0.4980     3.4980    10.5870 nb         1 1IN      -0.665000
     42 H11A         1.8000    -1.5670     3.8250 h1         1 1IN       0.083200
     43 H12          0.2080    -2.0730     3.2420 h1         1 1IN       0.083200
     44 H2           1.5310     0.6280     2.6370 h1         1 1IN       0.029700
     45 HO4         -0.9290     0.0490    -6.9840 ho         1 1IN       0.451000
     46 H71          2.7230    -5.2380    -0.3140 hc         1 1IN       0.045256
     47 H72          2.5410    -4.8390     1.4050 hc         1 1IN       0.045256
     48 H73          1.1440    -4.7300     0.3140 hc         1 1IN       0.045256
     49 H81         -0.5520     1.8410     3.2530 h1         1 1IN       0.039200
     50 H82         -2.1180     1.2220     2.7100 h1         1 1IN       0.039200
     51 H91         -1.6670     0.6070     5.0710 h1         1 1IN       0.065200
     52 H92         -1.8650    -0.8160     4.0500 h1         1 1IN       0.065200
     53 H101         0.3740     1.6990     0.5340 h1         1 1IN       0.035700
     54 H102        -1.3840     1.6280     0.5970 h1         1 1IN       0.035700
     55 H11          0.4810    -0.2100    -0.9160 h1         1 1IN       0.097700
     56 H121        -0.7040     1.8720    -1.9160 hc         1 1IN       0.054200
     57 H122        -2.1930     0.9480    -1.8230 hc         1 1IN       0.054200
     58 H13          0.3490     0.0880    -3.3050 hc         1 1IN       0.059700
     59 H141        -1.0090    -1.8890    -2.7400 hc         1 1IN       0.063200
     60 H142        -2.4390    -1.1480    -3.4320 hc         1 1IN       0.063200
     61 H16          1.1670    -1.9070    -4.4000 ha         1 1IN       0.117000
     62 H19         -2.3090    -2.7480    -7.8700 ha         1 1IN       0.115500
     63 H20         -2.9700    -1.8120    -5.6660 ha         1 1IN       0.117000
     64 H22         -1.1890     3.0980    -6.2450 h1         1 1IN       0.092700
     65 H241         1.6120     1.1900    -8.8270 hc         1 1IN       0.051200
     66 H242         1.4170     0.2560    -7.3530 hc         1 1IN       0.051200
     67 H271         1.1730    -0.2110     8.6550 hc         1 1IN       0.066200
     68 H272         1.7600     1.3410     8.0820 hc         1 1IN       0.066200
     69 H30          0.8530     4.1060    -7.2360 hc         1 1IN       0.057700
     70 H33         -2.5470     0.9670    11.5470 ha         1 1IN       0.124000
     71 H34         -2.0350     3.3780    11.9860 h4         1 1IN       0.019100
     72 H35          0.9940     3.4000     9.1440 h4         1 1IN       0.017100
     73 HN2          1.2570    -2.7530     1.7150 hn         1 1IN       0.310500
     74 H51          1.0130    -2.8280    -1.4290 hc         1 1IN       0.045256
     75 H52          2.3870    -1.7260    -1.6390 hc         1 1IN       0.045256
     76 H53          2.5490    -3.4290    -2.0810 hc         1 1IN       0.045256
     77 H61          4.4430    -3.0920     1.2400 hc         1 1IN       0.045256
     78 H62          4.6430    -3.5900    -0.4510 hc         1 1IN       0.045256
     79 H63          4.4180    -1.8820    -0.0580 hc         1 1IN       0.045256
     80 HO2         -1.3180    -0.9840     0.6590 ho         1 1IN       0.429000
     81 H17          1.8190    -2.8250    -6.6120 ha         1 1IN       0.115500
     82 H18          0.0840    -3.2490    -8.3520 ha         1 1IN       0.115000
     83 HN4          0.8550     1.1620    -5.0010 hn         1 1IN       0.312500
     84 H23         -0.4320     2.4070    -8.5270 h1         1 1IN       0.075700
     85 H251         2.8410     2.8150    -7.5910 hc         1 1IN       0.043700
     86 H252         2.6180     1.8490    -6.1430 hc         1 1IN       0.043700
     87 C10         -0.4770     1.0080     0.6000 c3         1 1IN       0.145800
     88 C31          0.8370    -0.1330     5.8280 c          1 1IN       0.602100
     89 C29          1.4210     4.1290    -5.1960 c3         1 1IN      -0.080100
     90 C26          0.0660     0.5740     6.9600 c3         1 1IN      -0.155400
     91 H32         -1.2110    -0.2770     9.8180 ha         1 1IN       0.119000
     92 H291         2.3100     4.7410    -5.3860 hc         1 1IN       0.036033
     93 H292         0.6160     4.8010    -4.8750 hc         1 1IN       0.036033
     94 H293         1.6530     3.4600    -4.3580 hc         1 1IN       0.036033
     95 H261        -0.2910     1.5340     6.5710 hc         1 1IN       0.061200
     96 H262        -0.8750     0.0350     7.1200 hc         1 1IN       0.061200
@<TRIPOS>BOND
     1     1     2 1   
     2     1    26 1   
     3     1    42 1   
     4     1    43 1   
     5     2     3 1   
     6     2    32 1   
     7     2    44 1   
     8     3    27 2   
     9     3    28 1   
    10     4    38 1   
    11     4    45 1   
    12     5    88 2   
    13     6    29 1   
    14     6    46 1   
    15     6    47 1   
    16     6    48 1   
    17     7     8 1   
    18     7    32 1   
    19     7    49 1   
    20     7    50 1   
    21     8    26 1   
    22     8    51 1   
    23     8    52 1   
    24     9    10 1   
    25     9    33 1   
    26     9    55 1   
    27     9    87 1   
    28    10    11 1   
    29    10    56 1   
    30    10    57 1   
    31    11    12 1   
    32    11    17 1   
    33    11    58 1   
    34    12    13 1   
    35    12    59 1   
    36    12    60 1   
    37    13    14 ar  
    38    13    16 ar  
    39    14    34 ar  
    40    14    61 1   
    41    15    16 ar  
    42    15    35 ar  
    43    15    62 1   
    44    16    63 1   
    45    17    36 2   
    46    17    37 1   
    47    18    21 1   
    48    18    37 1   
    49    18    38 1   
    50    18    64 1   
    51    19    38 1   
    52    19    39 1   
    53    19    65 1   
    54    19    66 1   
    55    20    40 1   
    56    20    67 1   
    57    20    68 1   
    58    20    90 1   
    59    21    39 1   
    60    21    69 1   
    61    21    89 1   
    62    22    23 ar  
    63    22    40 ar  
    64    22    91 1   
    65    23    24 ar  
    66    23    70 1   
    67    24    41 ar  
    68    24    71 1   
    69    25    40 ar  
    70    25    41 ar  
    71    25    72 1   
    72    26    88 1   
    73    28    29 1   
    74    28    73 1   
    75    29    30 1   
    76    29    31 1   
    77    30    74 1   
    78    30    75 1   
    79    30    76 1   
    80    31    77 1   
    81    31    78 1   
    82    31    79 1   
    83    32    87 1   
    84    33    80 1   
    85    34    35 ar  
    86    34    81 1   
    87    35    82 1   
    88    37    83 1   
    89    38    84 1   
    90    39    85 1   
    91    39    86 1   
    92    53    87 1   
    93    54    87 1   
    94    88    90 1   
    95    89    92 1   
    96    89    93 1   
    97    89    94 1   
    98    90    95 1   
    99    90    96 1   
@<TRIPOS>SUBSTRUCTURE
     1 1IN         1 TEMP              0 ****  ****    0 ROOT
