@<TRIPOS>MOLECULE
1IN
   96    99     1     0     0
SMALL
abcg2


@<TRIPOS>ATOM
      1 C1           1.5080    -1.4910     3.5020 c6         1 1IN       0.094000
      2 C2           1.4160    -0.4200     2.4120 c6         1 1IN       0.086500
      3 C3           2.3830    -0.8040     1.2900 c          1 1IN       0.600100
      4 O4          -0.8890     1.3000    -7.4380 oh         1 1IN      -0.639000
      5 O5           2.0200    -0.6120     6.0710 o          1 1IN      -0.603100
      6 C7           5.2450     1.2660     0.1810 c3         1 1IN      -0.104767
      7 C8          -0.9440    -0.1950     2.9010 c6         1 1IN       0.159800
      8 C9          -0.8280    -1.2670     3.9670 c6         1 1IN       0.092000
      9 C11         -0.6400    -0.0450    -0.4850 c3         1 1IN       0.162300
     10 C12         -0.6130     0.9620    -1.6310 c3         1 1IN      -0.102400
     11 C13         -1.0250     0.3910    -2.9950 c3         1 1IN      -0.127700
     12 C14         -2.5460     0.4080    -3.2200 c3         1 1IN      -0.025100
     13 C15         -2.9470    -0.0940    -4.5800 ca         1 1IN      -0.088300
     14 C16         -2.6350    -1.3950    -4.9780 ca         1 1IN      -0.110000
     15 C19         -3.9890     0.2620    -6.7380 ca         1 1IN      -0.112000
     16 C20         -3.6230     0.7270    -5.4790 ca         1 1IN      -0.110000
     17 C21         -0.3600     1.1980    -4.0980 c          1 1IN       0.596100
     18 C22          1.1580     1.0340    -6.0520 c5         1 1IN       0.080700
     19 C24          0.6340    -0.6400    -7.7160 c5         1 1IN      -0.119400
     20 C27          0.2030     0.1280     8.0210 c3         1 1IN      -0.016100
     21 C30          2.4370     0.2260    -6.2810 c5         1 1IN      -0.086700
     22 C32         -1.6020    -0.4040     9.7120 ca         1 1IN      -0.072000
     23 C33         -2.6960     0.0010    10.4610 ca         1 1IN      -0.162000
     24 C34         -3.1180     1.3180    10.3580 ca         1 1IN       0.333900
     25 C35         -1.4710     1.8080     8.8680 ca         1 1IN       0.335900
     26 N1           0.5110    -1.2540     4.5220 n          1 1IN      -0.405800
     27 O1           2.2230    -1.8370     0.6560 o          1 1IN      -0.587100
     28 N2           3.3770     0.0700     1.0840 ns         1 1IN      -0.510900
     29 C4           4.3960     0.0060     0.0280 c3         1 1IN       0.139400
     30 C5           5.2850    -1.2250     0.2050 c3         1 1IN      -0.104767
     31 C6           3.7330     0.0030    -1.3510 c3         1 1IN      -0.104767
     32 N3           0.0680    -0.3610     1.8750 n3         1 1IN      -0.717600
     33 O2          -1.9130    -0.6180    -0.2660 oh         1 1IN      -0.642000
     34 C17         -2.9910    -1.8620    -6.2350 ca         1 1IN      -0.112000
     35 C18         -3.6710    -1.0340    -7.1210 ca         1 1IN      -0.112000
     36 O3          -0.4970     2.4110    -4.1710 o          1 1IN      -0.602100
     37 N4           0.3800     0.4810    -4.9630 ns         1 1IN      -0.503900
     38 C23          0.4360     0.8520    -7.3970 c5         1 1IN       0.155300
     39 C25          1.9420    -1.0420    -7.0060 c5         1 1IN      -0.079400
     40 C28         -0.9600     0.5130     8.8870 ca         1 1IN      -0.137300
     41 N5          -2.5180     2.2090     9.5780 nb         1 1IN      -0.665000
     42 H11A         2.5020    -1.4950     3.9420 h1         1 1IN       0.083200
     43 H12          1.3270    -2.4740     3.0590 h1         1 1IN       0.083200
     44 H2           1.7180     0.5440     2.8580 h1         1 1IN       0.029700
     45 HO4         -1.4150     0.7750    -6.8230 ho         1 1IN       0.451000
     46 H71          6.0230     1.2900    -0.5820 hc         1 1IN       0.045256
     47 H72          4.6410     2.1690     0.0720 hc         1 1IN       0.045256
     48 H73          5.7350     1.2980     1.1560 hc         1 1IN       0.045256
     49 H81         -0.8820     0.7940     3.3880 h1         1 1IN       0.039200
     50 H82         -1.9290    -0.2610     2.4390 h1         1 1IN       0.039200
     51 H91         -1.5810    -1.1130     4.7350 h1         1 1IN       0.065200
     52 H92         -1.0120    -2.2520     3.5300 h1         1 1IN       0.065200
     53 H101         0.8710     1.0650     0.5430 h1         1 1IN       0.035700
     54 H102        -0.7380     1.4260     1.0890 h1         1 1IN       0.035700
     55 H11          0.0090    -0.8840    -0.7510 h1         1 1IN       0.097700
     56 H121         0.4140     1.3350    -1.6950 hc         1 1IN       0.054200
     57 H122        -1.2290     1.8340    -1.3850 hc         1 1IN       0.054200
     58 H13         -0.6800    -0.6480    -3.0480 hc         1 1IN       0.059700
     59 H141        -3.0150    -0.2060    -2.4510 hc         1 1IN       0.063200
     60 H142        -2.9140     1.4270    -3.0780 hc         1 1IN       0.063200
     61 H16         -2.1090    -2.0530    -4.2960 ha         1 1IN       0.117000
     62 H19         -4.5150     0.9160    -7.4200 ha         1 1IN       0.115500
     63 H20         -3.8700     1.7430    -5.1920 ha         1 1IN       0.117000
     64 H22          1.3610     2.0810    -5.8290 h1         1 1IN       0.092700
     65 H241         0.6650    -0.8180    -8.7910 hc         1 1IN       0.051200
     66 H242        -0.2130    -1.2140    -7.3290 hc         1 1IN       0.051200
     67 H271         0.7870    -0.6530     8.5130 hc         1 1IN       0.066200
     68 H272         0.8670     0.9840     7.8900 hc         1 1IN       0.066200
     69 H30          3.0340     0.8110    -6.9870 hc         1 1IN       0.057700
     70 H33         -3.2120    -0.6870    11.1170 ha         1 1IN       0.124000
     71 H34         -3.9700     1.6670    10.9300 h4         1 1IN       0.019100
     72 H35         -0.9990     2.5590     8.2410 h4         1 1IN       0.017100
     73 HN2          3.3960     0.8850     1.6760 hn         1 1IN       0.310500
     74 H51          5.7660    -1.2180     1.1850 hc         1 1IN       0.045256
     75 H52          4.7190    -2.1490     0.1080 hc         1 1IN       0.045256
     76 H53          6.0700    -1.2290    -0.5530 hc         1 1IN       0.045256
     77 H61          3.0640     0.8580    -1.4610 hc         1 1IN       0.045256
     78 H62          4.4910     0.0680    -2.1330 hc         1 1IN       0.045256
     79 H63          3.1550    -0.9040    -1.5190 hc         1 1IN       0.045256
     80 HO2         -2.5280     0.0860    -0.0330 ho         1 1IN       0.429000
     81 H17         -2.7380    -2.8740    -6.5230 ha         1 1IN       0.115500
     82 H18         -3.9490    -1.3950    -8.1020 ha         1 1IN       0.115000
     83 HN4          0.4300    -0.5140    -4.8060 hn         1 1IN       0.312500
     84 H23          0.9760     1.4540    -8.1350 h1         1 1IN       0.075700
     85 H251         2.6960    -1.4210    -7.6960 hc         1 1IN       0.043700
     86 H252         1.7610    -1.8440    -6.2840 hc         1 1IN       0.043700
     87 C10         -0.0860     0.5940     0.7850 c3         1 1IN       0.145800
     88 C31          0.8520    -0.7460     5.7300 c          1 1IN       0.602100
     89 C29          3.2850    -0.0340    -5.0500 c3         1 1IN      -0.080100
     90 C26         -0.2840    -0.3640     6.6600 c3         1 1IN      -0.155400
     91 H32         -1.2470    -1.4260     9.7720 ha         1 1IN       0.119000
     92 H291         4.1860    -0.5890    -5.3160 hc         1 1IN       0.036033
     93 H292         3.5990     0.9000    -4.5800 hc         1 1IN       0.036033
     94 H293         2.7530    -0.6190    -4.2980 hc         1 1IN       0.036033
     95 H261        -0.8840     0.4190     6.1850 hc         1 1IN       0.061200
     96 H262        -0.9580    -1.2150     6.7960 hc         1 1IN       0.061200
@<TRIPOS>BOND
     1     1     2 1   
     2     1    26 1   
     3     1    42 1   
     4     1    43 1   
     5     2     3 1   
     6     2    32 1   
     7     2    44 1   
     8     3    27 2   
     9     3    28 1   
    10     4    38 1   
    11     4    45 1   
    12     5    88 2   
    13     6    29 1   
    14     6    46 1   
    15     6    47 1   
    16     6    48 1   
    17     7     8 1   
    18     7    32 1   
    19     7    49 1   
    20     7    50 1   
    21     8    26 1   
    22     8    51 1   
    23     8    52 1   
    24     9    10 1   
    25     9    33 1   
    26     9    55 1   
    27     9    87 1   
    28    10    11 1   
    29    10    56 1   
    30    10    57 1   
    31    11    12 1   
    32    11    17 1   
    33    11    58 1   
    34    12    13 1   
    35    12    59 1   
    36    12    60 1   
    37    13    14 ar  
    38    13    16 ar  
    39    14    34 ar  
    40    14    61 1   
    41    15    16 ar  
    42    15    35 ar  
    43    15    62 1   
    44    16    63 1   
    45    17    36 2   
    46    17    37 1   
    47    18    21 1   
    48    18    37 1   
    49    18    38 1   
    50    18    64 1   
    51    19    38 1   
    52    19    39 1   
    53    19    65 1   
    54    19    66 1   
    55    20    40 1   
    56    20    67 1   
    57    20    68 1   
    58    20    90 1   
    59    21    39 1   
    60    21    69 1   
    61    21    89 1   
    62    22    23 ar  
    63    22    40 ar  
    64    22    91 1   
    65    23    24 ar  
    66    23    70 1   
    67    24    41 ar  
    68    24    71 1   
    69    25    40 ar  
    70    25    41 ar  
    71    25    72 1   
    72    26    88 1   
    73    28    29 1   
    74    28    73 1   
    75    29    30 1   
    76    29    31 1   
    77    30    74 1   
    78    30    75 1   
    79    30    76 1   
    80    31    77 1   
    81    31    78 1   
    82    31    79 1   
    83    32    87 1   
    84    33    80 1   
    85    34    35 ar  
    86    34    81 1   
    87    35    82 1   
    88    37    83 1   
    89    38    84 1   
    90    39    85 1   
    91    39    86 1   
    92    53    87 1   
    93    54    87 1   
    94    88    90 1   
    95    89    92 1   
    96    89    93 1   
    97    89    94 1   
    98    90    95 1   
    99    90    96 1   
@<TRIPOS>SUBSTRUCTURE
     1 1IN         1 TEMP              0 ****  ****    0 ROOT
