@<TRIPOS>MOLECULE
1IO
   33    34     1     0     0
SMALL
bcc


@<TRIPOS>ATOM
      1 C02         -5.7130   -50.0580   133.9660 ca         1 1IO       0.786200
      2 C04         -4.3240   -51.5080   132.8460 ca         1 1IO       0.706900
      3 C06         -3.3460   -49.8970   133.9710 ca         1 1IO       0.496800
      4 C07         -4.5590   -49.3970   134.4230 ca         1 1IO      -0.185200
      5 C09         -3.0710   -48.1570   135.2520 cc         1 1IO       0.425700
      6 C12         -0.4940   -47.9190   133.4840 c3         1 1IO       0.150400
      7 C14         -1.2050   -46.5100   131.7420 c3         1 1IO       0.067100
      8 C15         -2.1380   -46.4590   130.5390 c3         1 1IO      -0.222600
      9 C20          0.1980   -46.0040   131.3370 c          1 1IO       0.891600
     10 N01         -6.9480   -49.6530   134.2770 nv         1 1IO      -0.976500
     11 N03         -5.5550   -51.1260   133.1780 nb         1 1IO      -0.857000
     12 N05         -3.1730   -50.9600   133.1880 nb         1 1IO      -0.717000
     13 N08         -4.3650   -48.3080   135.2300 nd         1 1IO      -0.567100
     14 N10         -2.3980   -49.0880   134.5160 na         1 1IO      -0.225000
     15 O13         -1.1870   -47.8230   132.2770 os         1 1IO      -0.353600
     16 O17         -4.6550   -46.1730   129.6280 o          1 1IO      -0.952167
     17 O18         -4.3170   -46.3030   132.1760 o          1 1IO      -0.952167
     18 O19         -4.0630   -48.4160   130.7130 o          1 1IO      -0.952167
     19 O21          1.0420   -46.8520   130.9830 o          1 1IO      -0.893800
     20 O22          0.3450   -44.7630   131.3520 o          1 1IO      -0.893800
     21 P16         -3.9550   -46.8860   130.7980 p5         1 1IO       1.158700
     22 H1          -4.2660   -52.3860   132.2110 h5         1 1IO       0.006100
     23 H2          -2.5460   -47.3860   135.7960 h5         1 1IO       0.041800
     24 H3          -0.7720   -50.0530   133.7130 h1         1 1IO       0.030200
     25 H4          -0.4340   -49.1900   135.2070 h1         1 1IO       0.030200
     26 H5           0.5890   -48.0160   133.3420 h1         1 1IO       0.001200
     27 H6          -0.6460   -47.0210   134.1020 h1         1 1IO       0.001200
     28 H7          -1.6050   -45.8300   132.5080 h1         1 1IO       0.021700
     29 H8          -1.7240   -47.0750   129.7300 hc         1 1IO       0.018200
     30 H9          -2.0970   -45.4280   130.1730 hc         1 1IO       0.018200
     31 H10         -7.7460   -50.1800   133.9680 hn         1 1IO       0.423800
     32 H11         -7.0980   -48.8780   134.8980 hn         1 1IO       0.423800
     33 C11         -0.9720   -49.1320   134.2600 c3         1 1IO       0.047300
@<TRIPOS>BOND
     1     1     4 ar  
     2     1    10 1   
     3     1    11 ar  
     4     2    11 ar  
     5     2    12 ar  
     6     2    22 1   
     7     3     4 ar  
     8     3    12 ar  
     9     3    14 1   
    10     4    13 1   
    11     5    13 2   
    12     5    14 1   
    13     5    23 1   
    14     6    15 1   
    15     6    26 1   
    16     6    27 1   
    17     6    33 1   
    18     7     8 1   
    19     7     9 1   
    20     7    15 1   
    21     7    28 1   
    22     8    21 1   
    23     8    29 1   
    24     8    30 1   
    25     9    19 1   
    26     9    20 1   
    27    10    31 1   
    28    10    32 1   
    29    14    33 1   
    30    16    21 1   
    31    17    21 1   
    32    18    21 1   
    33    24    33 1   
    34    25    33 1   
@<TRIPOS>SUBSTRUCTURE
     1 1IO         1 TEMP              0 ****  ****    0 ROOT
