@<TRIPOS>MOLECULE
1IO
   33    34     1     0     0
SMALL
No Charge or Current Charge


@<TRIPOS>ATOM
      1 C02         -5.5040   -50.9700   134.2040 ca         1 1IO       0.457900
      2 C04         -4.0780   -51.6440   132.5450 ca         1 1IO       0.180900
      3 C06         -3.2610   -50.1610   134.0810 ca         1 1IO       0.168500
      4 C07         -4.4740   -50.1590   134.7300 ca         1 1IO      -0.054600
      5 C09         -3.2400   -48.7990   135.8620 cc         1 1IO       0.425700
      6 C12         -0.9200   -47.6050   133.7660 c3         1 1IO       0.173600
      7 C14         -1.5990   -46.3720   131.7730 c3         1 1IO       0.090300
      8 C15         -2.6380   -46.5590   130.6370 c3         1 1IO      -0.380400
      9 C20         -0.1420   -45.9960   131.2630 c          1 1IO       0.681000
     10 N01         -6.7450   -51.0470   134.7580 nv         1 1IO      -1.086900
     11 N03         -5.3100   -51.7150   133.1050 nb         1 1IO      -0.331000
     12 N05         -3.0320   -50.9020   132.9780 nb         1 1IO      -0.191000
     13 N08         -4.4850   -49.3130   135.8500 nd         1 1IO      -0.567100
     14 N10         -2.4820   -49.3030   134.8040 na         1 1IO      -0.254300
     15 O13         -1.6310   -47.6200   132.5140 os         1 1IO      -0.400000
     16 O17         -4.1720   -45.2920   128.8180 o          1 1IO      -0.952167
     17 O18         -1.7790   -44.8650   128.6810 o          1 1IO      -0.952167
     18 O19         -3.1100   -43.8770   130.4930 o          1 1IO      -0.952167
     19 O21          0.6020   -46.8850   130.8590 o          1 1IO      -0.788500
     20 O22          0.2760   -44.8650   131.4810 o          1 1IO      -0.788500
     21 P16         -2.9280   -45.0640   129.6090 p5         1 1IO       1.316500
     22 H1          -3.9120   -52.2470   131.6550 h5         1 1IO       0.006100
     23 H2          -2.8420   -48.0890   136.5780 h5         1 1IO       0.041800
     24 H3          -0.6850   -49.7620   133.7940 h1         1 1IO       0.030200
     25 H4          -0.4920   -48.9870   135.3710 h1         1 1IO       0.030200
     26 H5           0.1490   -47.4140   133.6050 h1         1 1IO       0.001200
     27 H6          -1.3140   -46.8200   134.4250 h1         1 1IO       0.001200
     28 H7          -1.9470   -45.5570   132.4210 h1         1 1IO       0.021700
     29 H8          -3.6040   -46.8460   131.0690 hc         1 1IO       0.018200
     30 H9          -2.3210   -47.3680   129.9700 hc         1 1IO       0.018200
     31 H10         -7.5000   -51.4140   134.1840 hn         1 1IO       0.479000
     32 H11         -6.9900   -50.3410   135.4490 hn         1 1IO       0.479000
     33 C11         -1.0870   -48.9800   134.4500 c3         1 1IO       0.076600
@<TRIPOS>BOND
     1     1     4 ar  
     2     1    10 1   
     3     1    11 ar  
     4     2    11 ar  
     5     2    12 ar  
     6     2    22 1   
     7     3     4 ar  
     8     3    12 ar  
     9     3    14 1   
    10     4    13 1   
    11     5    13 2   
    12     5    14 1   
    13     5    23 1   
    14     6    15 1   
    15     6    26 1   
    16     6    27 1   
    17     6    33 1   
    18     7     8 1   
    19     7     9 1   
    20     7    15 1   
    21     7    28 1   
    22     8    21 1   
    23     8    29 1   
    24     8    30 1   
    25     9    19 1   
    26     9    20 1   
    27    10    31 1   
    28    10    32 1   
    29    14    33 1   
    30    16    21 1   
    31    17    21 1   
    32    18    21 1   
    33    24    33 1   
    34    25    33 1   
@<TRIPOS>SUBSTRUCTURE
     1 1IO         1 TEMP              0 ****  ****    0 ROOT
