@<TRIPOS>MOLECULE
1IP
   24    23     1     0     0
SMALL
abcg2


@<TRIPOS>ATOM
      1 OAG          6.0350     0.8230    -1.6130 o          1 1IP      -0.921167
      2 PAP          5.7930     1.8960    -0.5590 p5         1 1IP       1.320500
      3 OAH          4.9270     1.3860     0.6410 o          1 1IP      -0.921167
      4 OAE          7.0310     2.6580    -0.0970 o          1 1IP      -0.921167
      5 CAJ          4.7130     3.1840    -1.3950 c3         1 1IP      -0.497400
      6 CAM          3.3520     2.6690    -1.7960 c          1 1IP       0.649100
      7 OAC          2.8990     2.7600    -2.9370 o          1 1IP      -0.735100
      8 N            2.6910     2.1080    -0.7750 ns         1 1IP      -0.498900
      9 CA           1.3860     1.5150    -0.8500 c3         1 1IP      -0.001300
     10 C            0.2330     2.5470    -0.6700 c          1 1IP       0.714000
     11 O1           0.5300     3.7510    -0.6650 o          1 1IP      -0.759500
     12 O           -0.9110     2.0530    -0.6110 o          1 1IP      -0.759500
     13 CB           1.2950     0.3830     0.1840 c3         1 1IP      -0.151400
     14 CG           2.0330    -0.8820    -0.2170 c          1 1IP       0.587100
     15 OD1          1.4160    -1.8800    -0.5930 o          1 1IP      -0.758100
     16 ND2          3.3680    -0.8350    -0.1550 nt         1 1IP      -0.586000
     17 HAJ1         5.2370     3.5620    -2.2750 hc         1 1IP       0.031700
     18 HAJ2         4.5860     4.0270    -0.7080 hc         1 1IP       0.031700
     19 HN           3.2720     1.9270     0.0480 hn         1 1IP       0.360500
     20 HA           1.2490     1.0830    -1.8490 h1         1 1IP       0.043700
     21 HB1          0.2460     0.1220     0.3060 hc         1 1IP       0.050200
     22 HB2          1.6630     0.7480     1.1490 hc         1 1IP       0.050200
     23 HD21         3.8800    -1.6770    -0.3630 hn         1 1IP       0.335500
     24 HD22         3.9230    -0.0280     0.1740 hn         1 1IP       0.335500
@<TRIPOS>BOND
     1     1     2 1   
     2     2     3 1   
     3     2     4 1   
     4     2     5 1   
     5     5     6 1   
     6     5    17 1   
     7     5    18 1   
     8     6     7 2   
     9     6     8 1   
    10     8     9 1   
    11     8    19 1   
    12     9    10 1   
    13     9    13 1   
    14     9    20 1   
    15    10    11 1   
    16    10    12 1   
    17    13    14 1   
    18    13    21 1   
    19    13    22 1   
    20    14    15 2   
    21    14    16 1   
    22    16    23 1   
    23    16    24 1   
@<TRIPOS>SUBSTRUCTURE
     1 1IP         1 TEMP              0 ****  ****    0 ROOT
