@<TRIPOS>MOLECULE
1IP
   24    23     1     0     0
SMALL
No Charge or Current Charge


@<TRIPOS>ATOM
      1 OAG          6.5220     0.9970    -1.4910 o          1 1IP      -0.921167
      2 PAP          5.8640     1.9730    -0.5790 p5         1 1IP       1.320500
      3 OAH          5.1110     1.2780     0.5020 o          1 1IP      -0.921167
      4 OAE          6.8850     2.8850     0.0100 o          1 1IP      -0.921167
      5 CAJ          4.7290     3.0040    -1.5280 c3         1 1IP      -0.497400
      6 CAM          3.5220     2.1450    -1.7490 c          1 1IP       0.649100
      7 OAC          3.4200     1.3700    -2.6890 o          1 1IP      -0.735100
      8 N            2.5060     2.3660    -0.8550 ns         1 1IP      -0.498900
      9 CA           1.2290     1.6200    -0.7710 c3         1 1IP      -0.001300
     10 C            0.0630     2.5820    -0.3600 c          1 1IP       0.714000
     11 O1           0.2250     3.3210     0.6040 o          1 1IP      -0.759500
     12 O           -0.9350     2.6240    -1.0670 o          1 1IP      -0.759500
     13 CB           1.3400     0.4150     0.2020 c3         1 1IP      -0.151400
     14 CG           2.0670    -0.7830    -0.4190 c          1 1IP       0.587100
     15 OD1          1.4940    -1.6590    -1.0470 o          1 1IP      -0.758100
     16 ND2          3.3950    -0.8590    -0.2260 nt         1 1IP      -0.586000
     17 HAJ1         5.2130     3.2820    -2.4690 hc         1 1IP       0.031700
     18 HAJ2         4.5080     3.8720    -0.8980 hc         1 1IP       0.031700
     19 HN           2.6910     3.0640    -0.1450 hn         1 1IP       0.360500
     20 HA           0.9800     1.2380    -1.7700 h1         1 1IP       0.043700
     21 HB1          0.3280     0.0980     0.4800 hc         1 1IP       0.050200
     22 HB2          1.8850     0.7610     1.0880 hc         1 1IP       0.050200
     23 HD21         3.9080    -1.6160    -0.6460 hn         1 1IP       0.335500
     24 HD22         3.8960    -0.0780     0.1960 hn         1 1IP       0.335500
@<TRIPOS>BOND
     1     1     2 1   
     2     2     3 1   
     3     2     4 1   
     4     2     5 1   
     5     5     6 1   
     6     5    17 1   
     7     5    18 1   
     8     6     7 2   
     9     6     8 1   
    10     8     9 1   
    11     8    19 1   
    12     9    10 1   
    13     9    13 1   
    14     9    20 1   
    15    10    11 1   
    16    10    12 1   
    17    13    14 1   
    18    13    21 1   
    19    13    22 1   
    20    14    15 2   
    21    14    16 1   
    22    16    23 1   
    23    16    24 1   
@<TRIPOS>SUBSTRUCTURE
     1 1IP         1 TEMP              0 ****  ****    0 ROOT
