@<TRIPOS>MOLECULE
1IQ
   39    41     1     0     0
SMALL
abcg2


@<TRIPOS>ATOM
      1 C5           3.3750    -0.0850    -0.0510 ca         1 1IQ      -0.082000
      2 C6           2.5480     1.0640    -0.0670 ca         1 1IQ       0.257000
      3 C7           3.1430     2.3430    -0.1460 ca         1 1IQ      -0.078000
      4 C8           4.5050     2.4640    -0.2070 ca         1 1IQ      -0.130000
      5 C9           5.3310     1.3190    -0.1890 ca         1 1IQ      -0.130000
      6 CA           4.7790     0.0700    -0.1130 ca         1 1IQ      -0.088000
      7 N1           1.2010     0.9720    -0.0070 nb         1 1IQ      -0.677000
      8 C4           2.7410    -1.3400     0.0150 ca         1 1IQ      -0.064000
      9 C3           1.3750    -1.4320     0.0580 ca         1 1IQ      -0.163600
     10 C2           0.6500    -0.2130     0.0530 ca         1 1IQ       0.360700
     11 CB           0.6910    -2.7920     0.0480 c          1 1IQ       0.716600
     12 OC           1.4280    -3.7830     0.1890 o          1 1IQ      -0.702500
     13 OD          -0.5420    -2.7790    -0.1190 o          1 1IQ      -0.702500
     14 N3          -1.5930     0.2410    -0.7880 n2         1 1IQ      -0.616900
     15 C16         -0.8340    -0.1760     0.1370 ce         1 1IQ       0.460900
     16 N2          -1.4760    -0.4760     1.3250 ns         1 1IQ      -0.429400
     17 C11         -2.8170    -0.3330     1.1510 c          1 1IQ       0.548000
     18 C15         -2.9600     0.2000    -0.2790 c5         1 1IQ       0.046200
     19 O6          -3.6790    -0.5930     1.9630 o          1 1IQ      -0.553000
     20 C13         -3.5500     1.6350    -0.2760 c3         1 1IQ      -0.030700
     21 C12         -3.7780    -0.7930    -1.1020 c3         1 1IQ      -0.068100
     22 C10         -3.3510     2.3280    -1.6220 c3         1 1IQ      -0.083600
     23 C14         -5.0220     1.6800     0.1200 c3         1 1IQ      -0.083600
     24 H7           2.5010     3.2140    -0.1580 ha         1 1IQ       0.119000
     25 H8           4.9570     3.4450    -0.2690 ha         1 1IQ       0.098000
     26 H9           6.4050     1.4360    -0.2360 ha         1 1IQ       0.097000
     27 H10          5.4080    -0.8120    -0.1010 ha         1 1IQ       0.110000
     28 H4           3.3410    -2.2420     0.0180 ha         1 1IQ       0.142000
     29 HN1         -1.0420    -0.8810     2.1410 hn         1 1IQ       0.347500
     30 H2          -2.9800     2.2040     0.4690 hc         1 1IQ       0.045700
     31 H71         -3.9400    -0.4200    -2.1130 hc         1 1IQ       0.047033
     32 H72         -3.2520    -1.7450    -1.1760 hc         1 1IQ       0.047033
     33 H73         -4.7490    -0.9790    -0.6460 hc         1 1IQ       0.047033
     34 H101        -2.2990     2.4000    -1.8900 hc         1 1IQ       0.032200
     35 H102        -3.8700     1.8050    -2.4270 hc         1 1IQ       0.032200
     36 H103        -3.7580     3.3400    -1.5760 hc         1 1IQ       0.032200
     37 H91         -5.6540     1.2150    -0.6380 hc         1 1IQ       0.032200
     38 H92         -5.2200     1.1880     1.0710 hc         1 1IQ       0.032200
     39 H93         -5.3430     2.7190     0.2130 hc         1 1IQ       0.032200
@<TRIPOS>BOND
     1     1     2 ar  
     2     1     6 ar  
     3     1     8 ar  
     4     2     3 ar  
     5     2     7 ar  
     6     3     4 ar  
     7     3    24 1   
     8     4     5 ar  
     9     4    25 1   
    10     5     6 ar  
    11     5    26 1   
    12     6    27 1   
    13     7    10 ar  
    14     8     9 ar  
    15     8    28 1   
    16     9    10 ar  
    17     9    11 1   
    18    10    15 1   
    19    11    12 1   
    20    11    13 1   
    21    14    15 2   
    22    14    18 1   
    23    15    16 1   
    24    16    17 1   
    25    16    29 1   
    26    17    18 1   
    27    17    19 2   
    28    18    20 1   
    29    18    21 1   
    30    20    22 1   
    31    20    23 1   
    32    20    30 1   
    33    21    31 1   
    34    21    32 1   
    35    21    33 1   
    36    22    34 1   
    37    22    35 1   
    38    22    36 1   
    39    23    37 1   
    40    23    38 1   
    41    23    39 1   
@<TRIPOS>SUBSTRUCTURE
     1 1IQ         1 TEMP              0 ****  ****    0 ROOT
