@<TRIPOS>MOLECULE
1IQ
   39    41     1     0     0
SMALL
No Charge or Current Charge


@<TRIPOS>ATOM
      1 C5           3.4660    -0.0710    -0.0030 ca         1 1IQ      -0.082000
      2 C6           2.6740     1.0870    -0.2000 ca         1 1IQ       0.257000
      3 C7           3.3240     2.3230    -0.3770 ca         1 1IQ      -0.078000
      4 C8           4.7280     2.4120    -0.3610 ca         1 1IQ      -0.130000
      5 C9           5.5010     1.2580    -0.1650 ca         1 1IQ      -0.130000
      6 CA           4.8720     0.0160     0.0140 ca         1 1IQ      -0.088000
      7 N1           1.3230     1.0290    -0.2160 nb         1 1IQ      -0.677000
      8 C4           2.8330    -1.3110     0.1720 ca         1 1IQ      -0.064000
      9 C3           1.4260    -1.3660     0.1420 ca         1 1IQ      -0.163600
     10 C2           0.6940    -0.1730    -0.0460 ca         1 1IQ       0.360700
     11 CB           0.7270    -2.6770     0.2950 c          1 1IQ       0.716600
     12 OC           1.0230    -3.3720     1.2530 o          1 1IQ      -0.702500
     13 OD          -0.0870    -2.9990    -0.5550 o          1 1IQ      -0.702500
     14 N3          -1.6060     0.3370    -0.9350 n2         1 1IQ      -0.616900
     15 C16         -0.8270    -0.1670    -0.0200 ce         1 1IQ       0.460900
     16 N2          -1.5230    -0.6390     1.0660 ns         1 1IQ      -0.429400
     17 C11         -2.8580    -0.5340     1.0050 c          1 1IQ       0.548000
     18 C15         -3.0200     0.1870    -0.3840 c5         1 1IQ       0.046200
     19 O6          -3.6570    -0.9600     1.8270 o          1 1IQ      -0.553000
     20 C13         -3.6630     1.6200    -0.2230 c3         1 1IQ      -0.030700
     21 C12         -3.8250    -0.7220    -1.3550 c3         1 1IQ      -0.068100
     22 C10         -3.6750     2.4670    -1.5250 c3         1 1IQ      -0.083600
     23 C14         -5.0830     1.6280     0.4050 c3         1 1IQ      -0.083600
     24 H7           2.7320     3.2220    -0.5290 ha         1 1IQ       0.119000
     25 H8           5.2130     3.3760    -0.5000 ha         1 1IQ       0.098000
     26 H9           6.5870     1.3240    -0.1530 ha         1 1IQ       0.097000
     27 H10          5.4760    -0.8770     0.1640 ha         1 1IQ       0.110000
     28 H4           3.4170    -2.2180     0.3180 ha         1 1IQ       0.142000
     29 HN1         -1.0400    -1.0620     1.8450 hn         1 1IQ       0.347500
     30 H2          -3.0270     2.1710     0.4820 hc         1 1IQ       0.045700
     31 H71         -3.8990    -0.2860    -2.3570 hc         1 1IQ       0.047033
     32 H72         -3.3430    -1.7010    -1.4620 hc         1 1IQ       0.047033
     33 H73         -4.8420    -0.9040    -0.9900 hc         1 1IQ       0.047033
     34 H101        -2.6710     2.5610    -1.9540 hc         1 1IQ       0.032200
     35 H102        -4.3330     2.0260    -2.2820 hc         1 1IQ       0.032200
     36 H103        -4.0370     3.4820    -1.3190 hc         1 1IQ       0.032200
     37 H91         -5.8050     1.1080    -0.2340 hc         1 1IQ       0.032200
     38 H92         -5.0900     1.1560     1.3940 hc         1 1IQ       0.032200
     39 H93         -5.4360     2.6580     0.5380 hc         1 1IQ       0.032200
@<TRIPOS>BOND
     1     1     2 ar  
     2     1     6 ar  
     3     1     8 ar  
     4     2     3 ar  
     5     2     7 ar  
     6     3     4 ar  
     7     3    24 1   
     8     4     5 ar  
     9     4    25 1   
    10     5     6 ar  
    11     5    26 1   
    12     6    27 1   
    13     7    10 ar  
    14     8     9 ar  
    15     8    28 1   
    16     9    10 ar  
    17     9    11 1   
    18    10    15 1   
    19    11    12 1   
    20    11    13 1   
    21    14    15 2   
    22    14    18 1   
    23    15    16 1   
    24    16    17 1   
    25    16    29 1   
    26    17    18 1   
    27    17    19 2   
    28    18    20 1   
    29    18    21 1   
    30    20    22 1   
    31    20    23 1   
    32    20    30 1   
    33    21    31 1   
    34    21    32 1   
    35    21    33 1   
    36    22    34 1   
    37    22    35 1   
    38    22    36 1   
    39    23    37 1   
    40    23    38 1   
    41    23    39 1   
@<TRIPOS>SUBSTRUCTURE
     1 1IQ         1 TEMP              0 ****  ****    0 ROOT
