@<TRIPOS>MOLECULE
1IR
   42    46     1     0     0
SMALL
No Charge or Current Charge


@<TRIPOS>ATOM
      1 C01          2.6810     3.7230    -0.4110 c3         1 1IR       0.167900
      2 O02          2.3130     2.3700    -0.0860 os         1 1IR      -0.422600
      3 C03          3.2340     1.3600    -0.1650 cc         1 1IR       0.646100
      4 N04          4.4990     1.5960    -0.5400 nd         1 1IR      -0.649100
      5 C05          5.0410     0.3160    -0.4730 ca         1 1IR       0.065400
      6 C06          6.3610    -0.0520    -0.7640 ca         1 1IR      -0.031000
      7 C07          6.6870    -1.4150    -0.6250 ca         1 1IR      -0.178000
      8 C08          5.6920    -2.3270    -0.2090 ca         1 1IR       0.340900
      9 N09          4.4170    -1.9550     0.0690 nb         1 1IR      -0.667000
     10 C10          4.1230    -0.6430    -0.0700 ca         1 1IR       0.345500
     11 N11          2.9510     0.0290     0.1310 na         1 1IR      -0.288300
     12 C12          1.6780    -0.5310     0.5620 cy         1 1IR       0.081300
     13 C13          0.9060     0.0720     1.7830 cy         1 1IR      -0.115400
     14 C14         -0.3740    -0.5110     1.1060 cy         1 1IR       0.216500
     15 C15          0.3650    -0.2590    -0.2470 cy         1 1IR      -0.115400
     16 N16         -1.6120     0.1970     1.3250 nu         1 1IR      -0.869400
     17 C17         -2.8040    -0.0450     0.7200 cc         1 1IR       0.652100
     18 N18         -3.8190     0.7250     1.0930 nd         1 1IR      -0.636100
     19 C19         -4.9260     0.3100     0.3620 ca         1 1IR       0.145400
     20 C20         -6.1990     0.8930     0.4790 ca         1 1IR      -0.080000
     21 C21         -7.2610     0.4000    -0.3080 ca         1 1IR      -0.100000
     22 C22         -7.0440    -0.6680    -1.2040 ca         1 1IR      -0.121000
     23 C23         -5.7660    -1.2470    -1.3150 ca         1 1IR      -0.061000
     24 C24         -4.7280    -0.7360    -0.5200 ca         1 1IR      -0.194000
     25 S25         -3.0700    -1.3100    -0.5050 ss         1 1IR      -0.040200
     26 H01          3.0270     3.7970    -1.4500 h1         1 1IR       0.056033
     27 H01A         1.8200     4.3920    -0.2920 h1         1 1IR       0.056033
     28 H01B         3.4820     4.0810     0.2490 h1         1 1IR       0.056033
     29 H06          7.0970     0.6830    -1.0810 ha         1 1IR       0.134000
     30 H07          7.6930    -1.7680    -0.8340 ha         1 1IR       0.125000
     31 H08          5.9240    -3.3850    -0.0960 h4         1 1IR       0.022100
     32 H12          1.8560    -1.6080     0.6900 h1         1 1IR       0.099700
     33 H13          1.1600    -0.3480     2.7620 hc         1 1IR       0.074950
     34 H13A         0.9300     1.1650     1.8540 hc         1 1IR       0.074950
     35 H14         -0.5300    -1.5770     1.3260 h1         1 1IR       0.077700
     36 H15          0.2600     0.7580    -0.6400 hc         1 1IR       0.074950
     37 H15A         0.1460    -0.9690    -1.0510 hc         1 1IR       0.074950
     38 HN16        -1.6650     0.9430     2.0130 hn         1 1IR       0.503000
     39 H20         -6.3620     1.7150     1.1700 ha         1 1IR       0.129000
     40 H21         -8.2500     0.8460    -0.2230 ha         1 1IR       0.114000
     41 H22         -7.8650    -1.0460    -1.8090 ha         1 1IR       0.114000
     42 H23         -5.5880    -2.0710    -2.0030 ha         1 1IR       0.121000
@<TRIPOS>BOND
     1     1     2 1   
     2     1    26 1   
     3     1    27 1   
     4     1    28 1   
     5     2     3 1   
     6     3     4 2   
     7     3    11 1   
     8     4     5 1   
     9     5     6 ar  
    10     5    10 ar  
    11     6     7 ar  
    12     6    29 1   
    13     7     8 ar  
    14     7    30 1   
    15     8     9 ar  
    16     8    31 1   
    17     9    10 ar  
    18    10    11 1   
    19    11    12 1   
    20    12    13 1   
    21    12    15 1   
    22    12    32 1   
    23    13    14 1   
    24    13    33 1   
    25    13    34 1   
    26    14    15 1   
    27    14    16 1   
    28    14    35 1   
    29    15    36 1   
    30    15    37 1   
    31    16    17 1   
    32    16    38 1   
    33    17    18 2   
    34    17    25 1   
    35    18    19 1   
    36    19    20 ar  
    37    19    24 ar  
    38    20    21 ar  
    39    20    39 1   
    40    21    22 ar  
    41    21    40 1   
    42    22    23 ar  
    43    22    41 1   
    44    23    24 ar  
    45    23    42 1   
    46    24    25 1   
@<TRIPOS>SUBSTRUCTURE
     1 1IR         1 TEMP              0 ****  ****    0 ROOT
