@<TRIPOS>MOLECULE
1IR
   42    46     1     0     0
SMALL
abcg2


@<TRIPOS>ATOM
      1 C01          2.4580     3.5810    -0.2300 c3         1 1IR       0.167900
      2 O02          2.1630     2.2040     0.0060 os         1 1IR      -0.422600
      3 C03          3.1560     1.3570    -0.1230 cc         1 1IR       0.646100
      4 N04          4.3850     1.6460    -0.4370 nd         1 1IR      -0.649100
      5 C05          5.0280     0.4310    -0.4370 ca         1 1IR       0.065400
      6 C06          6.3410     0.0700    -0.6870 ca         1 1IR      -0.031000
      7 C07          6.6440    -1.2850    -0.5890 ca         1 1IR      -0.178000
      8 C08          5.6540    -2.2050    -0.2550 ca         1 1IR       0.340900
      9 N09          4.3850    -1.8760    -0.0100 nb         1 1IR      -0.667000
     10 C10          4.1250    -0.5940    -0.1090 ca         1 1IR       0.345500
     11 N11          2.9120     0.0300     0.0890 na         1 1IR      -0.288300
     12 C12          1.6830    -0.6300     0.4500 cy         1 1IR       0.081300
     13 C13          0.9260    -0.2140     1.7220 cy         1 1IR      -0.115400
     14 C14         -0.3700    -0.5330     0.9640 cy         1 1IR       0.216500
     15 C15          0.4020    -0.4090    -0.3710 cy         1 1IR      -0.115400
     16 N16         -1.4820     0.3340     1.2290 nu         1 1IR      -0.869400
     17 C17         -2.7120     0.1480     0.7290 cc         1 1IR       0.652100
     18 N18         -3.6890     0.9900     0.8470 nd         1 1IR      -0.636100
     19 C19         -4.8280     0.5020     0.2580 ca         1 1IR       0.145400
     20 C20         -6.0610     1.1520     0.2140 ca         1 1IR      -0.080000
     21 C21         -7.1290     0.5350    -0.4160 ca         1 1IR      -0.100000
     22 C22         -6.9930    -0.7230    -1.0050 ca         1 1IR      -0.121000
     23 C23         -5.7750    -1.3880    -0.9710 ca         1 1IR      -0.061000
     24 C24         -4.7100    -0.7650    -0.3390 ca         1 1IR      -0.194000
     25 S25         -3.0800    -1.3410    -0.1420 ss         1 1IR      -0.040200
     26 H01          2.7840     3.7410    -1.2580 h1         1 1IR       0.056033
     27 H01A         1.5320     4.1180    -0.0520 h1         1 1IR       0.056033
     28 H01B         3.2280     3.9410     0.4520 h1         1 1IR       0.056033
     29 H06          7.0950     0.8020    -0.9440 ha         1 1IR       0.134000
     30 H07          7.6510    -1.6350    -0.7720 ha         1 1IR       0.125000
     31 H08          5.8980    -3.2580    -0.1810 h4         1 1IR       0.022100
     32 H12          1.9210    -1.6920     0.4890 h1         1 1IR       0.099700
     33 H13          1.1310    -0.7680     2.6360 hc         1 1IR       0.074950
     34 H13A         1.0140     0.8550     1.9210 hc         1 1IR       0.074950
     35 H14         -0.6690    -1.5690     1.1450 h1         1 1IR       0.077700
     36 H15          0.3240     0.6010    -0.7710 hc         1 1IR       0.074950
     37 H15A         0.1880    -1.1290    -1.1590 hc         1 1IR       0.074950
     38 HN16        -1.2890     1.2620     1.5780 hn         1 1IR       0.503000
     39 H20         -6.1730     2.1270     0.6700 ha         1 1IR       0.129000
     40 H21         -8.0870     1.0370    -0.4500 ha         1 1IR       0.114000
     41 H22         -7.8400    -1.1860    -1.4920 ha         1 1IR       0.114000
     42 H23         -5.6630    -2.3630    -1.4260 ha         1 1IR       0.121000
@<TRIPOS>BOND
     1     1     2 1   
     2     1    26 1   
     3     1    27 1   
     4     1    28 1   
     5     2     3 1   
     6     3     4 2   
     7     3    11 1   
     8     4     5 1   
     9     5     6 ar  
    10     5    10 ar  
    11     6     7 ar  
    12     6    29 1   
    13     7     8 ar  
    14     7    30 1   
    15     8     9 ar  
    16     8    31 1   
    17     9    10 ar  
    18    10    11 1   
    19    11    12 1   
    20    12    13 1   
    21    12    15 1   
    22    12    32 1   
    23    13    14 1   
    24    13    33 1   
    25    13    34 1   
    26    14    15 1   
    27    14    16 1   
    28    14    35 1   
    29    15    36 1   
    30    15    37 1   
    31    16    17 1   
    32    16    38 1   
    33    17    18 2   
    34    17    25 1   
    35    18    19 1   
    36    19    20 ar  
    37    19    24 ar  
    38    20    21 ar  
    39    20    39 1   
    40    21    22 ar  
    41    21    40 1   
    42    22    23 ar  
    43    22    41 1   
    44    23    24 ar  
    45    23    42 1   
    46    24    25 1   
@<TRIPOS>SUBSTRUCTURE
     1 1IR         1 TEMP              0 ****  ****    0 ROOT
