@<TRIPOS>MOLECULE
1IS
   42    46     1     0     0
SMALL
No Charge or Current Charge


@<TRIPOS>ATOM
      1 C01          6.3410    -1.6040    -0.2640 c3         1 1IS       0.170900
      2 O02          4.9430    -1.5390     0.0730 os         1 1IS      -0.422600
      3 C03          4.2820    -0.3400     0.0600 cc         1 1IS       0.648100
      4 N04          4.9010     0.8020    -0.2600 nd         1 1IS      -0.647100
      5 C05          3.8560     1.7120    -0.1460 ca         1 1IS       0.063400
      6 C06          3.9250     3.0930    -0.3750 ca         1 1IS      -0.030000
      7 C07          2.7360     3.8280    -0.2060 ca         1 1IS      -0.178000
      8 C08          1.5570     3.1550     0.1750 ca         1 1IS       0.340900
      9 N09          1.5060     1.8170     0.3920 nb         1 1IS      -0.671000
     10 C10          2.6550     1.1240     0.2300 ca         1 1IS       0.342500
     11 N11          2.9320    -0.2130     0.3650 na         1 1IS      -0.293300
     12 C12          2.0540    -1.3240     0.7360 cy         1 1IS       0.086300
     13 C13          1.3710    -2.1560    -0.4030 cy         1 1IS      -0.109900
     14 C14          0.1480    -1.2030    -0.2200 cy         1 1IS       0.218500
     15 C15          0.5950    -1.1100     1.2730 cy         1 1IS      -0.109900
     16 N16         -1.1610    -1.7540    -0.4830 nu         1 1IS      -0.872400
     17 C17         -2.3530    -1.1330    -0.2800 cc         1 1IS       0.652100
     18 N18         -3.4370    -1.8170    -0.6250 nd         1 1IS      -0.641100
     19 C19         -4.5290    -1.0050    -0.3400 ca         1 1IS       0.146400
     20 C20         -5.8620    -1.3840    -0.5690 ca         1 1IS      -0.082000
     21 C21         -6.9030    -0.4890    -0.2460 ca         1 1IS      -0.100000
     22 C22         -6.6050     0.7770     0.3010 ca         1 1IS      -0.123000
     23 C23         -5.2660     1.1510     0.5270 ca         1 1IS      -0.061000
     24 C24         -4.2520     0.2390     0.1960 ca         1 1IS      -0.198000
     25 S25         -2.5280     0.5040     0.3960 ss         1 1IS      -0.032200
     26 H01          6.9400    -0.9940     0.4250 h1         1 1IS       0.055700
     27 H01A         6.7010    -2.6390    -0.2010 h1         1 1IS       0.055700
     28 H01B         6.5150    -1.2470    -1.2870 h1         1 1IS       0.055700
     29 H06          4.8560     3.5710    -0.6690 ha         1 1IS       0.134000
     30 H07          2.7210     4.9020    -0.3680 ha         1 1IS       0.125000
     31 H08          0.6250     3.7030     0.3100 h4         1 1IS       0.022100
     32 H12          2.6540    -1.9450     1.4120 h1         1 1IS       0.087700
     33 H13          1.8590    -2.1210    -1.3820 hc         1 1IS       0.072450
     34 H13A         1.1800    -3.2040    -0.1430 hc         1 1IS       0.072450
     35 H14          0.2560    -0.2590    -0.7730 h1         1 1IS       0.103700
     36 H15          0.2260    -1.9250     1.9060 hc         1 1IS       0.072450
     37 H15A         0.3910    -0.1650     1.7850 hc         1 1IS       0.072450
     38 HN16        -1.2610    -2.6710    -0.9090 hn         1 1IS       0.499000
     39 H20         -6.0880    -2.3600    -0.9900 ha         1 1IS       0.128000
     40 H21         -7.9380    -0.7760    -0.4200 ha         1 1IS       0.113000
     41 H22         -7.4090     1.4660     0.5480 ha         1 1IS       0.113000
     42 H23         -5.0260     2.1250     0.9480 ha         1 1IS       0.120000
@<TRIPOS>BOND
     1     1     2 1   
     2     1    26 1   
     3     1    27 1   
     4     1    28 1   
     5     2     3 1   
     6     3     4 2   
     7     3    11 1   
     8     4     5 1   
     9     5     6 ar  
    10     5    10 ar  
    11     6     7 ar  
    12     6    29 1   
    13     7     8 ar  
    14     7    30 1   
    15     8     9 ar  
    16     8    31 1   
    17     9    10 ar  
    18    10    11 1   
    19    11    12 1   
    20    12    13 1   
    21    12    15 1   
    22    12    32 1   
    23    13    14 1   
    24    13    33 1   
    25    13    34 1   
    26    14    15 1   
    27    14    16 1   
    28    14    35 1   
    29    15    36 1   
    30    15    37 1   
    31    16    17 1   
    32    16    38 1   
    33    17    18 2   
    34    17    25 1   
    35    18    19 1   
    36    19    20 ar  
    37    19    24 ar  
    38    20    21 ar  
    39    20    39 1   
    40    21    22 ar  
    41    21    40 1   
    42    22    23 ar  
    43    22    41 1   
    44    23    24 ar  
    45    23    42 1   
    46    24    25 1   
@<TRIPOS>SUBSTRUCTURE
     1 1IS         1 TEMP              0 ****  ****    0 ROOT
