@<TRIPOS>MOLECULE
1IS
   42    46     1     0     0
SMALL
abcg2


@<TRIPOS>ATOM
      1 C01          5.9880    -1.8220     1.1350 c3         1 1IS       0.170900
      2 O02          4.6290    -1.6350     0.7410 os         1 1IS      -0.422600
      3 C03          4.2720    -0.4170     0.4090 cc         1 1IS       0.648100
      4 N04          5.0260     0.6420     0.4230 nd         1 1IS      -0.647100
      5 C05          4.1940     1.6510     0.0020 ca         1 1IS       0.063400
      6 C06          4.3990     3.0060    -0.1890 ca         1 1IS      -0.030000
      7 C07          3.3070     3.7470    -0.6310 ca         1 1IS      -0.178000
      8 C08          2.0830     3.1240    -0.8620 ca         1 1IS       0.340900
      9 N09          1.8670     1.8210    -0.6840 nb         1 1IS      -0.671000
     10 C10          2.9100     1.1430    -0.2650 ca         1 1IS       0.342500
     11 N11          2.9830    -0.2060     0.0070 na         1 1IS      -0.293300
     12 C12          1.9310    -1.1900    -0.1030 cy         1 1IS       0.086300
     13 C13          1.1810    -1.2430    -1.4540 cy         1 1IS      -0.109900
     14 C14         -0.0850    -0.7030    -0.7710 cy         1 1IS       0.218500
     15 C15          0.6010    -0.8560     0.6090 cy         1 1IS      -0.109900
     16 N16         -1.2830    -1.4520    -1.0340 nu         1 1IS      -0.872400
     17 C17         -2.4870    -1.1140    -0.5570 cc         1 1IS       0.652100
     18 N18         -3.5580    -1.8350    -0.6700 nd         1 1IS      -0.641100
     19 C19         -4.6340    -1.2020    -0.1030 ca         1 1IS       0.146400
     20 C20         -5.9370    -1.6980    -0.0600 ca         1 1IS      -0.082000
     21 C21         -6.9290    -0.9450     0.5470 ca         1 1IS      -0.100000
     22 C22         -6.6470     0.2980     1.1160 ca         1 1IS      -0.123000
     23 C23         -5.3580     0.8100     1.0830 ca         1 1IS      -0.061000
     24 C24         -4.3700     0.0530     0.4740 ca         1 1IS      -0.198000
     25 S25         -2.6810     0.4260     0.2830 ss         1 1IS      -0.032200
     26 H01          6.2360    -1.2110     2.0020 h1         1 1IS       0.055700
     27 H01A         6.0820    -2.8730     1.3890 h1         1 1IS       0.055700
     28 H01B         6.6690    -1.5810     0.3190 h1         1 1IS       0.055700
     29 H06          5.3600     3.4690    -0.0030 ha         1 1IS       0.134000
     30 H07          3.3990     4.8110    -0.7990 ha         1 1IS       0.125000
     31 H08          1.2370     3.7070    -1.2060 h4         1 1IS       0.022100
     32 H12          2.3550    -2.1450     0.1930 h1         1 1IS       0.087700
     33 H13          1.5820    -0.6400    -2.2660 hc         1 1IS       0.072450
     34 H13A         1.0750    -2.2690    -1.8080 hc         1 1IS       0.072450
     35 H14         -0.2460     0.3470    -1.0200 h1         1 1IS       0.103700
     36 H15          0.2220    -1.7030     1.1790 hc         1 1IS       0.072450
     37 H15A         0.6000     0.0260     1.2470 hc         1 1IS       0.072450
     38 HN16        -1.1930    -2.4020    -1.3650 hn         1 1IS       0.499000
     39 H20         -6.1620    -2.6610    -0.5000 ha         1 1IS       0.128000
     40 H21         -7.9410    -1.3270     0.5790 ha         1 1IS       0.113000
     41 H22         -7.4360     0.8690     1.5860 ha         1 1IS       0.113000
     42 H23         -5.1330     1.7740     1.5230 ha         1 1IS       0.120000
@<TRIPOS>BOND
     1     1     2 1   
     2     1    26 1   
     3     1    27 1   
     4     1    28 1   
     5     2     3 1   
     6     3     4 2   
     7     3    11 1   
     8     4     5 1   
     9     5     6 ar  
    10     5    10 ar  
    11     6     7 ar  
    12     6    29 1   
    13     7     8 ar  
    14     7    30 1   
    15     8     9 ar  
    16     8    31 1   
    17     9    10 ar  
    18    10    11 1   
    19    11    12 1   
    20    12    13 1   
    21    12    15 1   
    22    12    32 1   
    23    13    14 1   
    24    13    33 1   
    25    13    34 1   
    26    14    15 1   
    27    14    16 1   
    28    14    35 1   
    29    15    36 1   
    30    15    37 1   
    31    16    17 1   
    32    16    38 1   
    33    17    18 2   
    34    17    25 1   
    35    18    19 1   
    36    19    20 ar  
    37    19    24 ar  
    38    20    21 ar  
    39    20    39 1   
    40    21    22 ar  
    41    21    40 1   
    42    22    23 ar  
    43    22    41 1   
    44    23    24 ar  
    45    23    42 1   
    46    24    25 1   
@<TRIPOS>SUBSTRUCTURE
     1 1IS         1 TEMP              0 ****  ****    0 ROOT
