@<TRIPOS>MOLECULE
1IT
   21    23     1     0     0
SMALL
No Charge or Current Charge


@<TRIPOS>ATOM
      1 C13          1.6950     1.5350     0.0010 ca         1 1IT      -0.054000
      2 C1           0.7350     0.5070     0.0070 cp         1 1IT      -0.093000
      3 C12          3.0590     1.1650     0.0020 ca         1 1IT      -0.135000
      4 C11          3.4410    -0.2020     0.0090 ca         1 1IT      -0.085000
      5 C10          2.4650    -1.2240     0.0140 ca         1 1IT      -0.112000
      6 C9           1.1230    -0.8320     0.0130 ca         1 1IT       0.086100
      7 O8           0.0050    -1.6410     0.0180 os         1 1IT      -0.181200
      8 C7          -1.1150    -0.8350     0.0150 ca         1 1IT       0.086100
      9 C2          -0.7300     0.5060     0.0080 cp         1 1IT      -0.093000
     10 C6          -2.4560    -1.2290     0.0170 ca         1 1IT      -0.112000
     11 C5          -3.4350    -0.2090     0.0130 ca         1 1IT      -0.085000
     12 C4          -3.0550     1.1580     0.0060 ca         1 1IT      -0.135000
     13 C3          -1.6920     1.5310     0.0040 ca         1 1IT      -0.054000
     14 H13          1.3960     2.5810    -0.0030 ha         1 1IT       0.120000
     15 H12          3.8250     1.9380    -0.0020 ha         1 1IT       0.116000
     16 H11          4.4970    -0.4660     0.0100 ha         1 1IT       0.116000
     17 H10          2.7430    -2.2750     0.0190 ha         1 1IT       0.132000
     18 H6          -2.7320    -2.2800     0.0230 ha         1 1IT       0.132000
     19 H3          -1.3950     2.5780    -0.0020 ha         1 1IT       0.120000
     20 H5          -4.4900    -0.4760     0.0150 ha         1 1IT       0.116000
     21 H4          -3.8230     1.9290     0.0030 ha         1 1IT       0.116000
@<TRIPOS>BOND
     1     1     2 ar  
     2     1     3 ar  
     3     1    14 1   
     4     2     6 ar  
     5     2     9 1   
     6     3     4 ar  
     7     3    15 1   
     8     4     5 ar  
     9     4    16 1   
    10     5     6 ar  
    11     5    17 1   
    12     6     7 1   
    13     7     8 1   
    14     8     9 ar  
    15     8    10 ar  
    16     9    13 ar  
    17    10    11 ar  
    18    10    18 1   
    19    11    12 ar  
    20    11    20 1   
    21    12    13 ar  
    22    12    21 1   
    23    13    19 1   
@<TRIPOS>SUBSTRUCTURE
     1 1IT         1 TEMP              0 ****  ****    0 ROOT
