@<TRIPOS>MOLECULE
1IT
   21    23     1     0     0
SMALL
abcg2


@<TRIPOS>ATOM
      1 C13          1.7110     1.5370     0.0010 ca         1 1IT      -0.054000
      2 C1           0.7250     0.5560     0.0070 cp         1 1IT      -0.093000
      3 C12          3.0380     1.1360     0.0030 ca         1 1IT      -0.135000
      4 C11          3.3800    -0.2200     0.0090 ca         1 1IT      -0.085000
      5 C10          2.4100    -1.2130     0.0140 ca         1 1IT      -0.112000
      6 C9           1.0940    -0.7900     0.0130 ca         1 1IT       0.086100
      7 O8           0.0050    -1.6050     0.0170 os         1 1IT      -0.181200
      8 C7          -1.0860    -0.7930     0.0150 ca         1 1IT       0.086100
      9 C2          -0.7190     0.5550     0.0080 cp         1 1IT      -0.093000
     10 C6          -2.4010    -1.2180     0.0180 ca         1 1IT      -0.112000
     11 C5          -3.3730    -0.2270     0.0130 ca         1 1IT      -0.085000
     12 C4          -3.0340     1.1290     0.0060 ca         1 1IT      -0.135000
     13 C3          -1.7080     1.5340     0.0030 ca         1 1IT      -0.054000
     14 H13          1.4520     2.5880    -0.0030 ha         1 1IT       0.120000
     15 H12          3.8220     1.8810    -0.0010 ha         1 1IT       0.116000
     16 H11          4.4250    -0.5030     0.0110 ha         1 1IT       0.116000
     17 H10          2.6720    -2.2630     0.0180 ha         1 1IT       0.132000
     18 H6          -2.6610    -2.2680     0.0240 ha         1 1IT       0.132000
     19 H3          -1.4520     2.5850    -0.0030 ha         1 1IT       0.120000
     20 H5          -4.4170    -0.5120     0.0150 ha         1 1IT       0.116000
     21 H4          -3.8200     1.8720     0.0040 ha         1 1IT       0.116000
@<TRIPOS>BOND
     1     1     2 ar  
     2     1     3 ar  
     3     1    14 1   
     4     2     6 ar  
     5     2     9 1   
     6     3     4 ar  
     7     3    15 1   
     8     4     5 ar  
     9     4    16 1   
    10     5     6 ar  
    11     5    17 1   
    12     6     7 1   
    13     7     8 1   
    14     8     9 ar  
    15     8    10 ar  
    16     9    13 ar  
    17    10    11 ar  
    18    10    18 1   
    19    11    12 ar  
    20    11    20 1   
    21    12    13 ar  
    22    12    21 1   
    23    13    19 1   
@<TRIPOS>SUBSTRUCTURE
     1 1IT         1 TEMP              0 ****  ****    0 ROOT
