@<TRIPOS>MOLECULE
1IU
   61    62     1     0     0
SMALL
abcg2


@<TRIPOS>ATOM
      1 NAS         -7.3710    -0.1680    -0.3950 nc         1 1IU      -0.396000
      2 NAR         -8.2810    -0.6840     0.4320 nc         1 1IU      -0.058000
      3 NAW         -7.7380    -1.1250     1.4960 nd         1 1IU      -0.224800
      4 NAT         -6.4420    -0.8930     1.3730 na         1 1IU      -0.216700
      5 CBB         -6.2090    -0.3020     0.1990 cd         1 1IU       0.436800
      6 CAP         -4.8850     0.1190    -0.3130 c3         1 1IU      -0.116700
      7 CBE         -3.9360    -1.0730    -0.4980 c3         1 1IU       0.089500
      8 NAD         -4.5620    -2.0580    -1.3490 n8         1 1IU      -1.003200
      9 CAZ         -2.6200    -0.5200    -1.0540 c          1 1IU       0.566100
     10 OAG         -2.5510    -0.1410    -2.2150 o          1 1IU      -0.617100
     11 NAV         -1.6180    -0.4550    -0.1740 ns         1 1IU      -0.449900
     12 CBF         -0.3130     0.1080    -0.4400 c3         1 1IU      -0.229300
     13 CAO         -0.0080     1.2180     0.5740 c3         1 1IU      -0.033100
     14 CBA         -1.0770     2.2740     0.5790 ca         1 1IU      -0.048300
     15 CAM         -2.0910     2.2630     1.5330 ca         1 1IU      -0.111000
     16 CAK         -3.1150     3.2030     1.4990 ca         1 1IU      -0.117000
     17 CAJ         -3.1380     4.1710     0.5050 ca         1 1IU      -0.127000
     18 CAL         -2.1280     4.1960    -0.4490 ca         1 1IU      -0.117000
     19 CAN         -1.1090     3.2550    -0.4100 ca         1 1IU      -0.111000
     20 PBG          0.9010    -1.3070    -0.4210 p5         1 1IU       1.382000
     21 OAI          0.4650    -2.2790    -1.4950 o          1 1IU      -0.806000
     22 OAH          1.0110    -1.7880     1.0120 o          1 1IU      -0.806000
     23 CAQ          2.4820    -0.4850    -0.8890 c3         1 1IU      -0.429400
     24 CBC          3.7020    -1.4150    -0.7940 c3         1 1IU      -0.090700
     25 CAA          3.7250    -2.4820    -1.8830 c3         1 1IU      -0.085100
     26 CAY          4.9550    -0.5610    -0.8760 c          1 1IU       0.603100
     27 OAF          5.3470    -0.0750    -1.9290 o          1 1IU      -0.634100
     28 N            5.5870    -0.3640     0.2930 ns         1 1IU      -0.507900
     29 CA           6.7400     0.4880     0.4380 c3         1 1IU       0.036700
     30 CB           6.3510     1.9590     0.6170 c3         1 1IU      -0.108100
     31 C            7.5360     0.0200     1.6510 c          1 1IU       0.593100
     32 O            6.9940    -0.5360     2.5950 o          1 1IU      -0.605100
     33 NAC          8.8400     0.3110     1.6090 nt         1 1IU      -0.610000
     34 HAT         -5.8000    -1.1580     2.1070 hn         1 1IU       0.382000
     35 HAP1        -5.0420     0.6160    -1.2720 hc         1 1IU       0.087200
     36 HAP2        -4.4370     0.8550     0.3600 hc         1 1IU       0.087200
     37 HBE         -3.7540    -1.5370     0.4760 h1         1 1IU       0.051700
     38 HAD1        -4.6430    -1.6920    -2.2910 hn         1 1IU       0.418500
     39 HAD2        -3.9810    -2.8840    -1.4110 hn         1 1IU       0.418500
     40 HAV         -1.7630    -0.8440     0.7450 hn         1 1IU       0.312500
     41 HBF         -0.3390     0.5330    -1.4460 h1         1 1IU       0.084700
     42 HAO1         0.0920     0.7740     1.5680 hc         1 1IU       0.055200
     43 HAO2         0.9590     1.6620     0.3310 hc         1 1IU       0.055200
     44 HAM         -2.0850     1.5110     2.3130 ha         1 1IU       0.110000
     45 HAN         -0.3290     3.2820    -1.1620 ha         1 1IU       0.110000
     46 HAK         -3.8940     3.1750     2.2500 ha         1 1IU       0.101500
     47 HAJ         -3.9350     4.9030     0.4750 ha         1 1IU       0.101000
     48 HAL         -2.1350     4.9500    -1.2260 ha         1 1IU       0.101500
     49 HAQ1         2.4050    -0.0670    -1.8970 hc         1 1IU       0.051200
     50 HAQ2         2.6270     0.3580    -0.2060 hc         1 1IU       0.051200
     51 HBC          3.6730    -1.9070     0.1830 hc         1 1IU       0.065700
     52 HAA1         2.8470    -3.1190    -1.8100 hc         1 1IU       0.045033
     53 HAA2         3.7260    -2.0290    -2.8740 hc         1 1IU       0.045033
     54 HAA3         4.6110    -3.1130    -1.7980 hc         1 1IU       0.045033
     55 H            5.2040    -0.7650     1.1360 hn         1 1IU       0.342500
     56 HA           7.3560     0.3910    -0.4580 h1         1 1IU       0.072700
     57 HB1C         5.7260     2.0880     1.5000 hc         1 1IU       0.045367
     58 HB2C         7.2330     2.5900     0.7210 hc         1 1IU       0.045367
     59 HB3C         5.7940     2.3030    -0.2530 hc         1 1IU       0.045367
     60 HAC1         9.2680     0.7250     0.8000 hn         1 1IU       0.310000
     61 HAC2         9.4400     0.0850     2.3860 hn         1 1IU       0.310000
@<TRIPOS>BOND
     1     1     2 1   
     2     1     5 2   
     3     2     3 2   
     4     3     4 1   
     5     4     5 1   
     6     4    34 1   
     7     5     6 1   
     8     6     7 1   
     9     6    35 1   
    10     6    36 1   
    11     7     8 1   
    12     7     9 1   
    13     7    37 1   
    14     8    38 1   
    15     8    39 1   
    16     9    10 2   
    17     9    11 1   
    18    11    12 1   
    19    11    40 1   
    20    12    13 1   
    21    12    20 1   
    22    12    41 1   
    23    13    14 1   
    24    13    42 1   
    25    13    43 1   
    26    14    15 ar  
    27    14    19 ar  
    28    15    16 ar  
    29    15    44 1   
    30    16    17 ar  
    31    16    46 1   
    32    17    18 ar  
    33    17    47 1   
    34    18    19 ar  
    35    18    48 1   
    36    19    45 1   
    37    20    21 1   
    38    20    22 1   
    39    20    23 1   
    40    23    24 1   
    41    23    49 1   
    42    23    50 1   
    43    24    25 1   
    44    24    26 1   
    45    24    51 1   
    46    25    52 1   
    47    25    53 1   
    48    25    54 1   
    49    26    27 2   
    50    26    28 1   
    51    28    29 1   
    52    28    55 1   
    53    29    30 1   
    54    29    31 1   
    55    29    56 1   
    56    30    57 1   
    57    30    58 1   
    58    30    59 1   
    59    31    32 2   
    60    31    33 1   
    61    33    60 1   
    62    33    61 1   
@<TRIPOS>SUBSTRUCTURE
     1 1IU         1 TEMP              0 ****  ****    0 ROOT
