@<TRIPOS>MOLECULE
1IU
   61    62     1     0     0
SMALL
No Charge or Current Charge


@<TRIPOS>ATOM
      1 NAS         -6.9740     0.8900     0.9290 nc         1 1IU      -0.396000
      2 NAR         -8.1830     0.2670     1.1510 nc         1 1IU      -0.058000
      3 NAW         -8.3290    -0.8060     0.4190 nd         1 1IU      -0.224800
      4 NAT         -7.1830    -0.8900    -0.3050 na         1 1IU      -0.216700
      5 CBB         -6.3660     0.1510     0.0250 cd         1 1IU       0.436800
      6 CAP         -5.0090     0.4450    -0.5560 c3         1 1IU      -0.116700
      7 CBE         -4.1470    -0.8130    -0.8290 c3         1 1IU       0.089500
      8 NAD         -4.7790    -1.6520    -1.9020 n8         1 1IU      -1.003200
      9 CAZ         -2.6570    -0.3970    -1.1040 c          1 1IU       0.566100
     10 OAG         -2.3020     0.1230    -2.1570 o          1 1IU      -0.617100
     11 NAV         -1.7690    -0.6860    -0.0810 ns         1 1IU      -0.449900
     12 CBF         -0.3440    -0.2380    -0.0260 c3         1 1IU      -0.229300
     13 CAO         -0.1620     0.8380     1.0780 c3         1 1IU      -0.033100
     14 CBA         -1.2220     1.9370     1.0150 ca         1 1IU      -0.048300
     15 CAM         -2.1840     2.0610     2.0380 ca         1 1IU      -0.111000
     16 CAK         -3.1730     3.0570     1.9650 ca         1 1IU      -0.117000
     17 CAJ         -3.2090     3.9340     0.8690 ca         1 1IU      -0.127000
     18 CAL         -2.2520     3.8170    -0.1530 ca         1 1IU      -0.117000
     19 CAN         -1.2610     2.8230    -0.0800 ca         1 1IU      -0.111000
     20 PBG          0.9340    -1.6110     0.0400 p5         1 1IU       1.382000
     21 OAI          0.5040    -2.7650    -0.8110 o          1 1IU      -0.806000
     22 OAH          1.2070    -2.0090     1.4570 o          1 1IU      -0.806000
     23 CAQ          2.4420    -0.8340    -0.6890 c3         1 1IU      -0.429400
     24 CBC          3.8190    -1.5280    -0.4220 c3         1 1IU      -0.090700
     25 CAA          3.9320    -2.9170    -1.0950 c3         1 1IU      -0.085100
     26 CAY          5.0120    -0.6270    -0.8390 c          1 1IU       0.603100
     27 OAF          5.2180    -0.2880    -1.9980 o          1 1IU      -0.634100
     28 N            5.8370    -0.2350     0.1920 ns         1 1IU      -0.507900
     29 CA           7.0260     0.6350     0.0550 c3         1 1IU       0.036700
     30 CB           6.6120     2.1140    -0.1430 c3         1 1IU      -0.108100
     31 C            7.9890     0.4430     1.2670 c          1 1IU       0.593100
     32 O            7.7470    -0.2870     2.2170 o          1 1IU      -0.605100
     33 NAC          9.1470     1.1420     1.2410 nt         1 1IU      -0.610000
     34 HAT         -6.9780    -1.6250    -0.9730 hn         1 1IU       0.382000
     35 HAP1        -5.1230     1.0200    -1.4820 hc         1 1IU       0.087200
     36 HAP2        -4.4630     1.0950     0.1380 hc         1 1IU       0.087200
     37 HBE         -4.1440    -1.4150     0.0920 h1         1 1IU       0.051700
     38 HAD1        -4.6350    -1.1860    -2.8090 hn         1 1IU       0.418500
     39 HAD2        -4.2370    -2.5210    -2.0170 hn         1 1IU       0.418500
     40 HAV         -2.1580    -1.1560     0.7310 hn         1 1IU       0.312500
     41 HBF         -0.0980     0.2300    -0.9860 h1         1 1IU       0.084700
     42 HAO1        -0.1900     0.3500     2.0600 hc         1 1IU       0.055200
     43 HAO2         0.8350     1.2870     0.9940 hc         1 1IU       0.055200
     44 HAM         -2.1700     1.3820     2.8870 ha         1 1IU       0.110000
     45 HAN         -0.5280     2.7340    -0.8780 ha         1 1IU       0.110000
     46 HAK         -3.9150     3.1450     2.7560 ha         1 1IU       0.101500
     47 HAJ         -3.9760     4.7030     0.8110 ha         1 1IU       0.101000
     48 HAL         -2.2790     4.4950    -1.0030 ha         1 1IU       0.101500
     49 HAQ1         2.2650    -0.7480    -1.7670 hc         1 1IU       0.051200
     50 HAQ2         2.4750     0.1840    -0.2880 hc         1 1IU       0.051200
     51 HBC          3.8980    -1.6870     0.6610 hc         1 1IU       0.065700
     52 HAA1         3.1780    -3.6100    -0.7060 hc         1 1IU       0.045033
     53 HAA2         3.8000    -2.8370    -2.1810 hc         1 1IU       0.045033
     54 HAA3         4.9180    -3.3570    -0.9030 hc         1 1IU       0.045033
     55 H            5.6090    -0.5850     1.1170 hn         1 1IU       0.342500
     56 HA           7.5840     0.3140    -0.8340 h1         1 1IU       0.072700
     57 HB1C         6.0820     2.4890     0.7400 hc         1 1IU       0.045367
     58 HB2C         7.4890     2.7500    -0.3130 hc         1 1IU       0.045367
     59 HB3C         5.9510     2.2220    -1.0110 hc         1 1IU       0.045367
     60 HAC1         9.3580     1.7480     0.4610 hn         1 1IU       0.310000
     61 HAC2         9.7980     1.0480     2.0070 hn         1 1IU       0.310000
@<TRIPOS>BOND
     1     1     2 1   
     2     1     5 2   
     3     2     3 2   
     4     3     4 1   
     5     4     5 1   
     6     4    34 1   
     7     5     6 1   
     8     6     7 1   
     9     6    35 1   
    10     6    36 1   
    11     7     8 1   
    12     7     9 1   
    13     7    37 1   
    14     8    38 1   
    15     8    39 1   
    16     9    10 2   
    17     9    11 1   
    18    11    12 1   
    19    11    40 1   
    20    12    13 1   
    21    12    20 1   
    22    12    41 1   
    23    13    14 1   
    24    13    42 1   
    25    13    43 1   
    26    14    15 ar  
    27    14    19 ar  
    28    15    16 ar  
    29    15    44 1   
    30    16    17 ar  
    31    16    46 1   
    32    17    18 ar  
    33    17    47 1   
    34    18    19 ar  
    35    18    48 1   
    36    19    45 1   
    37    20    21 1   
    38    20    22 1   
    39    20    23 1   
    40    23    24 1   
    41    23    49 1   
    42    23    50 1   
    43    24    25 1   
    44    24    26 1   
    45    24    51 1   
    46    25    52 1   
    47    25    53 1   
    48    25    54 1   
    49    26    27 2   
    50    26    28 1   
    51    28    29 1   
    52    28    55 1   
    53    29    30 1   
    54    29    31 1   
    55    29    56 1   
    56    30    57 1   
    57    30    58 1   
    58    30    59 1   
    59    31    32 2   
    60    31    33 1   
    61    33    60 1   
    62    33    61 1   
@<TRIPOS>SUBSTRUCTURE
     1 1IU         1 TEMP              0 ****  ****    0 ROOT
