@<TRIPOS>MOLECULE
1IV
   71    77     1     0     0
SMALL
No Charge or Current Charge


@<TRIPOS>ATOM
      1 C1         -20.5830    10.8470    -0.4820 ca         1 1IV      -0.100300
      2 C2         -21.8400    11.3820    -0.8640 ca         1 1IV      -0.088000
      3 C3         -22.9670    11.2530    -0.0220 ca         1 1IV      -0.121000
      4 C4         -22.8060    10.5750     1.1960 ca         1 1IV      -0.047200
      5 C6         -25.3480    12.2250     2.6640 ca         1 1IV      -0.117300
      6 N1         -22.8280     8.8960     5.6470 n          1 1IV      -0.416800
      7 N2         -21.8710    13.6530     6.2270 nb         1 1IV      -0.685000
      8 N3         -23.7370    15.1760     6.7140 na         1 1IV      -0.321400
      9 C7         -24.2790    13.0980     2.9760 ca         1 1IV      -0.089000
     10 C8         -24.5380    14.4100     3.4090 ca         1 1IV      -0.097500
     11 C9         -25.8600    14.8590     3.5460 ca         1 1IV       0.124000
     12 C10        -26.9270    13.9970     3.2520 ca         1 1IV      -0.097500
     13 C11        -26.6710    12.6870     2.8110 ca         1 1IV      -0.089000
     14 C12        -23.1030     9.6130     3.2570 cc         1 1IV      -0.096300
     15 C13        -21.7820     9.4640     2.8570 cd         1 1IV      -0.222200
     16 C14        -21.5890    10.0630     1.5620 ca         1 1IV      -0.098800
     17 C15        -20.4510    10.1730     0.7550 ca         1 1IV      -0.061000
     18 C20        -21.9710     9.8820     6.1770 c          1 1IV       0.632700
     19 C21        -22.4670    11.2880     6.2750 ca         1 1IV      -0.231600
     20 C27        -23.8020    11.6070     6.6020 ca         1 1IV      -0.001000
     21 C26        -24.1060    12.9670     6.7070 ca         1 1IV      -0.143800
     22 C25        -25.3460    13.6020     7.0320 cc         1 1IV      -0.232200
     23 C24        -25.1020    14.9650     7.0370 cd         1 1IV      -0.144100
     24 C23        -23.1520    13.9390     6.5200 ca         1 1IV       0.378500
     25 C22        -21.5420    12.3390     6.1130 ca         1 1IV       0.400900
     26 C19        -22.4890     7.4520     5.7300 c5         1 1IV       0.086000
     27 C18        -23.2630     6.8260     4.5310 c5         1 1IV       0.063300
     28 N4         -23.6390     5.4130     4.6900 na         1 1IV      -0.163500
     29 C30        -23.4190     4.3810     3.7880 cc         1 1IV       0.413800
     30 C31        -22.7330     4.5270     2.4260 c3         1 1IV       0.118500
     31 N6         -21.2360     4.4350     2.4400 n8         1 1IV      -0.982200
     32 N5         -23.9080     3.2390     4.2600 nd         1 1IV      -0.658000
     33 C29        -24.4550     3.5390     5.4880 cd         1 1IV       0.237900
     34 C28        -24.3070     4.8710     5.7700 cc         1 1IV      -0.233000
     35 C17        -24.4610     7.8000     4.3970 c5         1 1IV      -0.100400
     36 C16        -23.7740     9.1810     4.5480 c5         1 1IV       0.178900
     37 C          -19.3800    10.9950    -1.4020 c3         1 1IV      -0.042800
     38 N          -23.7270    10.3150     2.2080 na         1 1IV      -0.085700
     39 Cl         -26.1800    16.5080     4.0700 cl         1 1IV      -0.212000
     40 H1         -21.9410    11.9010    -1.8140 ha         1 1IV       0.112000
     41 H2         -23.9260    11.6730    -0.3170 ha         1 1IV       0.118000
     42 H3         -25.4730    10.7320     1.1160 h1         1 1IV       0.066200
     43 H4         -25.7450    10.1120     2.7380 h1         1 1IV       0.066200
     44 H6         -23.2450    12.7780     2.8790 ha         1 1IV       0.125500
     45 H7         -23.7120    15.0790     3.6390 ha         1 1IV       0.133000
     46 H8         -27.9510    14.3470     3.3570 ha         1 1IV       0.133000
     47 H9         -27.5070    12.0300     2.5760 ha         1 1IV       0.125500
     48 H10        -21.0050     8.9780     3.4420 ha         1 1IV       0.210000
     49 H11        -19.4990     9.7550     1.0730 ha         1 1IV       0.116000
     50 H12        -24.5540    10.8470     6.8020 ha         1 1IV       0.122000
     51 H13        -26.3030    13.1250     7.2380 ha         1 1IV       0.209000
     52 H14        -25.7870    15.7890     7.2360 h4         1 1IV       0.220000
     53 H15        -20.4980    12.1300     5.8790 h4         1 1IV       0.034100
     54 H16        -22.8300     7.0440     6.6910 h1         1 1IV       0.071200
     55 H17        -21.4100     7.2630     5.6480 h1         1 1IV       0.071200
     56 H18        -22.6340     6.9260     3.6380 h1         1 1IV       0.079700
     57 H19        -23.0240     5.4880     1.9810 h1         1 1IV       0.051200
     58 H20        -23.1160     3.7390     1.7630 h1         1 1IV       0.051200
     59 H21        -20.8760     4.5920     1.4900 hn         1 1IV       0.393500
     60 H22        -20.8450     5.2140     2.9820 hn         1 1IV       0.393500
     61 H24        -24.9310     2.7820     6.0990 h4         1 1IV       0.039100
     62 H25        -24.6220     5.4470     6.6320 h4         1 1IV       0.155000
     63 H26        -24.9880     7.6910     3.4430 hc         1 1IV       0.069700
     64 H27        -25.1960     7.6420     5.1950 hc         1 1IV       0.069700
     65 H28        -24.5240     9.9300     4.8260 h1         1 1IV       0.082700
     66 H29        -19.4150    11.9410    -1.9540 hc         1 1IV       0.040700
     67 H30        -18.4400    10.9780    -0.8390 hc         1 1IV       0.040700
     68 H31        -19.3470    10.1800    -2.1350 hc         1 1IV       0.040700
     69 C5         -25.1210    10.7990     2.1530 c3         1 1IV       0.121900
     70 H5         -23.2560    16.0640     6.6420 hn         1 1IV       0.364000
     71 O          -20.8750     9.5820     6.6300 o          1 1IV      -0.579100
@<TRIPOS>BOND
     1     1     2 ar  
     2     1    17 ar  
     3     1    37 1   
     4     2     3 ar  
     5     2    40 1   
     6     3     4 ar  
     7     3    41 1   
     8     4    16 ar  
     9     4    38 1   
    10     5     9 ar  
    11     5    13 ar  
    12     5    69 1   
    13     6    18 1   
    14     6    26 1   
    15     6    36 1   
    16     7    24 ar  
    17     7    25 ar  
    18     8    23 1   
    19     8    24 1   
    20     8    70 1   
    21     9    10 ar  
    22     9    44 1   
    23    10    11 ar  
    24    10    45 1   
    25    11    12 ar  
    26    11    39 1   
    27    12    13 ar  
    28    12    46 1   
    29    13    47 1   
    30    14    15 2   
    31    14    36 1   
    32    14    38 1   
    33    15    16 1   
    34    15    48 1   
    35    16    17 ar  
    36    17    49 1   
    37    18    19 1   
    38    18    71 2   
    39    19    20 ar  
    40    19    25 ar  
    41    20    21 ar  
    42    20    50 1   
    43    21    22 1   
    44    21    24 ar  
    45    22    23 2   
    46    22    51 1   
    47    23    52 1   
    48    25    53 1   
    49    26    27 1   
    50    26    54 1   
    51    26    55 1   
    52    27    28 1   
    53    27    35 1   
    54    27    56 1   
    55    28    29 1   
    56    28    34 1   
    57    29    30 1   
    58    29    32 2   
    59    30    31 1   
    60    30    57 1   
    61    30    58 1   
    62    31    59 1   
    63    31    60 1   
    64    32    33 1   
    65    33    34 2   
    66    33    61 1   
    67    34    62 1   
    68    35    36 1   
    69    35    63 1   
    70    35    64 1   
    71    36    65 1   
    72    37    66 1   
    73    37    67 1   
    74    37    68 1   
    75    38    69 1   
    76    42    69 1   
    77    43    69 1   
@<TRIPOS>SUBSTRUCTURE
     1 1IV         1 TEMP              0 ****  ****    0 ROOT
