@<TRIPOS>MOLECULE
1IV
   71    77     1     0     0
SMALL
abcg2


@<TRIPOS>ATOM
      1 C1         -20.7620    10.8630    -0.5640 ca         1 1IV      -0.100300
      2 C2         -22.0480    11.3280    -0.9060 ca         1 1IV      -0.088000
      3 C3         -23.1300    11.2000    -0.0580 ca         1 1IV      -0.121000
      4 C4         -22.9130    10.5780     1.1700 ca         1 1IV      -0.047200
      5 C6         -25.2250    12.2400     2.7460 ca         1 1IV      -0.117300
      6 N1         -22.8190     8.8820     5.4950 n          1 1IV      -0.416800
      7 N2         -22.0580    13.5030     6.0880 nb         1 1IV      -0.685000
      8 N3         -23.8340    14.9930     6.6660 na         1 1IV      -0.321400
      9 C7         -24.1020    13.0090     3.0240 ca         1 1IV      -0.089000
     10 C8         -24.2260    14.3330     3.4240 ca         1 1IV      -0.097500
     11 C9         -25.4860    14.8850     3.5570 ca         1 1IV       0.124000
     12 C10        -26.6240    14.1340     3.3050 ca         1 1IV      -0.097500
     13 C11        -26.4840    12.8170     2.8980 ca         1 1IV      -0.089000
     14 C12        -23.0910     9.7070     3.2190 cc         1 1IV      -0.096300
     15 C13        -21.7780     9.5700     2.8630 cd         1 1IV      -0.222200
     16 C14        -21.6390    10.1180     1.5510 ca         1 1IV      -0.098800
     17 C15        -20.5640    10.2620     0.6660 ca         1 1IV      -0.061000
     18 C20        -22.1350     9.7720     6.2440 c          1 1IV       0.632700
     19 C21        -22.6420    11.1740     6.2760 ca         1 1IV      -0.231600
     20 C27        -23.9320    11.4690     6.6970 ca         1 1IV      -0.001000
     21 C26        -24.2870    12.8070     6.8080 ca         1 1IV      -0.143800
     22 C25        -25.4540    13.5370     7.1860 cc         1 1IV      -0.232200
     23 C24        -25.1320    14.8580     7.0780 cd         1 1IV      -0.144100
     24 C23        -23.2930    13.7620     6.4860 ca         1 1IV       0.378500
     25 C22        -21.7490    12.2210     5.9980 ca         1 1IV       0.400900
     26 C19        -22.4590     7.4710     5.5000 c5         1 1IV       0.086000
     27 C18        -23.2950     6.8820     4.3570 c5         1 1IV       0.063300
     28 N4         -23.6740     5.5050     4.5690 na         1 1IV      -0.163500
     29 C30        -23.2830     4.4270     3.8370 cc         1 1IV       0.413800
     30 C31        -22.3470     4.4950     2.6750 c3         1 1IV       0.118500
     31 N6         -20.9560     4.5730     3.1110 n8         1 1IV      -0.982200
     32 N5         -23.8150     3.3250     4.3040 nd         1 1IV      -0.658000
     33 C29        -24.5730     3.6960     5.3760 cd         1 1IV       0.237900
     34 C28        -24.5000     5.0430     5.5600 cc         1 1IV      -0.233000
     35 C17        -24.4630     7.8530     4.2190 c5         1 1IV      -0.100400
     36 C16        -23.7840     9.2050     4.4520 c5         1 1IV       0.178900
     37 C          -19.6300    11.0280    -1.5380 c3         1 1IV      -0.042800
     38 N          -23.7880    10.3050     2.1940 na         1 1IV      -0.085700
     39 CL         -25.6460    16.5410     4.0450 cl         1 1IV      -0.212000
     40 H1         -22.1930    11.8030    -1.8690 ha         1 1IV       0.112000
     41 H2         -24.1040    11.5710    -0.3480 ha         1 1IV       0.118000
     42 H3         -25.5760    10.7360     1.2640 h1         1 1IV       0.066200
     43 H4         -25.7370    10.1610     2.8930 h1         1 1IV       0.066200
     44 H6         -23.1080    12.5920     2.9320 ha         1 1IV       0.125500
     45 H7         -23.3410    14.9200     3.6250 ha         1 1IV       0.133000
     46 H8         -27.6080    14.5680     3.4190 ha         1 1IV       0.133000
     47 H9         -27.3740    12.2340     2.6920 ha         1 1IV       0.125500
     48 H10        -21.0010     9.1130     3.4560 ha         1 1IV       0.210000
     49 H11        -19.5800     9.9030     0.9440 ha         1 1IV       0.116000
     50 H12        -24.6340    10.6830     6.9500 ha         1 1IV       0.122000
     51 H13        -26.4070    13.1370     7.4930 ha         1 1IV       0.209000
     52 H14        -25.7370    15.7290     7.2650 h4         1 1IV       0.220000
     53 H15        -20.7380    11.9900     5.6800 h4         1 1IV       0.034100
     54 H16        -22.7160     7.0150     6.4590 h1         1 1IV       0.071200
     55 H17        -21.3910     7.3220     5.3340 h1         1 1IV       0.071200
     56 H18        -22.7110     6.9160     3.4370 h1         1 1IV       0.079700
     57 H19        -22.6480     5.3020     1.9940 h1         1 1IV       0.051200
     58 H20        -22.4750     3.5670     2.1200 h1         1 1IV       0.051200
     59 H21        -20.3580     4.4700     2.3000 hn         1 1IV       0.393500
     60 H22        -20.7530     5.4960     3.4760 hn         1 1IV       0.393500
     61 H24        -25.1340     2.9790     5.9570 h4         1 1IV       0.039100
     62 H25        -24.9530     5.6940     6.2900 h4         1 1IV       0.155000
     63 H26        -24.9580     7.7830     3.2510 hc         1 1IV       0.069700
     64 H27        -25.2080     7.6870     5.0000 hc         1 1IV       0.069700
     65 H28        -24.5130     9.9340     4.8050 h1         1 1IV       0.082700
     66 H29        -19.4470    12.0800    -1.7640 hc         1 1IV       0.040700
     67 H30        -18.7040    10.6070    -1.1490 hc         1 1IV       0.040700
     68 H31        -19.8460    10.5330    -2.4870 hc         1 1IV       0.040700
     69 C5         -25.1330    10.8120     2.2590 c3         1 1IV       0.121900
     70 H5         -23.3680    15.8680     6.4840 hn         1 1IV       0.364000
     71 O          -21.1580     9.4470     6.9010 o          1 1IV      -0.579100
@<TRIPOS>BOND
     1     1     2 ar  
     2     1    17 ar  
     3     1    37 1   
     4     2     3 ar  
     5     2    40 1   
     6     3     4 ar  
     7     3    41 1   
     8     4    16 ar  
     9     4    38 1   
    10     5     9 ar  
    11     5    13 ar  
    12     5    69 1   
    13     6    18 1   
    14     6    26 1   
    15     6    36 1   
    16     7    24 ar  
    17     7    25 ar  
    18     8    23 1   
    19     8    24 1   
    20     8    70 1   
    21     9    10 ar  
    22     9    44 1   
    23    10    11 ar  
    24    10    45 1   
    25    11    12 ar  
    26    11    39 1   
    27    12    13 ar  
    28    12    46 1   
    29    13    47 1   
    30    14    15 2   
    31    14    36 1   
    32    14    38 1   
    33    15    16 1   
    34    15    48 1   
    35    16    17 ar  
    36    17    49 1   
    37    18    19 1   
    38    18    71 2   
    39    19    20 ar  
    40    19    25 ar  
    41    20    21 ar  
    42    20    50 1   
    43    21    22 1   
    44    21    24 ar  
    45    22    23 2   
    46    22    51 1   
    47    23    52 1   
    48    25    53 1   
    49    26    27 1   
    50    26    54 1   
    51    26    55 1   
    52    27    28 1   
    53    27    35 1   
    54    27    56 1   
    55    28    29 1   
    56    28    34 1   
    57    29    30 1   
    58    29    32 2   
    59    30    31 1   
    60    30    57 1   
    61    30    58 1   
    62    31    59 1   
    63    31    60 1   
    64    32    33 1   
    65    33    34 2   
    66    33    61 1   
    67    34    62 1   
    68    35    36 1   
    69    35    63 1   
    70    35    64 1   
    71    36    65 1   
    72    37    66 1   
    73    37    67 1   
    74    37    68 1   
    75    38    69 1   
    76    42    69 1   
    77    43    69 1   
@<TRIPOS>SUBSTRUCTURE
     1 1IV         1 TEMP              0 ****  ****    0 ROOT
