@<TRIPOS>MOLECULE
1IW
   52    55     1     0     0
SMALL
No Charge or Current Charge


@<TRIPOS>ATOM
      1 C11         26.4220    -7.4490    -2.2690 ca         1 1IW       0.015000
      2 C13         23.7980     0.9890    -0.0070 ca         1 1IW       0.112000
      3 C15         14.9420     2.2380    -1.1950 cc         1 1IW      -0.153100
      4 C16         19.5670     1.8590    -0.8690 ca         1 1IW      -0.121000
      5 C17         24.8630    -1.5600    -0.6390 ca         1 1IW      -0.019000
      6 C19         27.7650    -7.3170    -1.8570 ca         1 1IW       0.377000
      7 C20         18.4100     1.0450    -0.8320 ca         1 1IW      -0.028000
      8 C21         15.8380     1.2010    -1.0060 cd         1 1IW      -0.232200
      9 C23         27.3150    -5.0110    -1.1900 ca         1 1IW      -0.027000
     10 C24         28.2010    -6.0940    -1.3250 ca         1 1IW      -0.212000
     11 C25         19.3950     3.2550    -1.0620 ca         1 1IW       0.332900
     12 C26         25.1810     0.7520     0.0510 ca         1 1IW      -0.082000
     13 C1          22.9130    -0.0580    -0.3940 ca         1 1IW      -0.124600
     14 C2          21.4020     0.0830    -0.5000 c          1 1IW       0.623700
     15 C4          17.1060     3.0650    -1.1730 ca         1 1IW       0.351500
     16 N5          18.1880     3.8610    -1.2130 nb         1 1IW      -0.667000
     17 N6          20.8960     1.3580    -0.7240 ns         1 1IW      -0.137000
     18 N7          25.4700    -2.8130    -0.9340 ns         1 1IW      -0.149000
     19 C8          25.9640    -5.1360    -1.5940 ca         1 1IW      -0.221600
     20 C9          17.1870     1.7050    -0.9910 ca         1 1IW      -0.120800
     21 N10         15.7650     3.3830    -1.2950 na         1 1IW      -0.325400
     22 C12         25.5320    -6.3690    -2.1360 ca         1 1IW       0.008000
     23 C14         23.4700    -1.3290    -0.6910 ca         1 1IW      -0.078000
     24 O18         20.6770    -0.9010    -0.3920 o          1 1IW      -0.567100
     25 O22         23.8090    -4.1320    -1.8310 o          1 1IW      -0.577100
     26 N27         28.6560    -8.3900    -1.9860 nu         1 1IW      -0.942200
     27 Cl28        25.8250    -8.9660    -2.9560 cl         1 1IW      -0.203000
     28 C29         25.7100    -0.5070    -0.2640 ca         1 1IW      -0.146000
     29 O31         28.2040   -10.5130     0.0490 oh         1 1IW      -0.661000
     30 C32         29.6610    -8.7890    -0.9720 c3         1 1IW       0.217800
     31 C33         29.0020    -9.3440     0.3240 c3         1 1IW       0.128600
     32 H39         13.8560     2.2580    -1.2620 h4         1 1IW       0.214000
     33 H40         18.4360    -0.0310    -0.6910 ha         1 1IW       0.143000
     34 H41         15.5560     0.1560    -0.8860 ha         1 1IW       0.210000
     35 H42         27.7000    -4.0840    -0.7720 ha         1 1IW       0.110000
     36 H43         29.2350    -5.9710    -1.0170 ha         1 1IW       0.117000
     37 H44         20.2630     3.9140    -1.0960 h4         1 1IW       0.018100
     38 H45         25.8510     1.5530     0.3560 ha         1 1IW       0.132000
     39 H34         21.6110     2.0700    -0.8020 hn         1 1IW       0.161000
     40 H35         26.4540    -2.8470    -0.7070 hn         1 1IW       0.154000
     41 H36         15.4360     4.3310    -1.4380 hn         1 1IW       0.360000
     42 H37         24.5020    -6.4990    -2.4600 ha         1 1IW       0.150000
     43 H38         22.7980    -2.1350    -0.9690 ha         1 1IW       0.159000
     44 H46         28.2090    -9.1890    -2.4420 hn         1 1IW       0.505000
     45 H47         26.7860    -0.6630    -0.2100 ha         1 1IW       0.117000
     46 H48         27.7910   -10.7870     0.8990 ho         1 1IW       0.451000
     47 H49         30.3150    -9.5700    -1.3850 h1         1 1IW       0.063200
     48 H50         30.3060    -7.9400    -0.7090 h1         1 1IW       0.063200
     49 H52         28.3820    -8.5570     0.7750 h1         1 1IW       0.029200
     50 H51         29.7950    -9.5900     1.0430 h1         1 1IW       0.029200
     51 C3          24.9720    -3.9960    -1.4680 c          1 1IW       0.631700
     52 Cl30        23.2700     2.5970     0.5020 cl         1 1IW      -0.189000
@<TRIPOS>BOND
     1     1     6 ar  
     2     1    22 ar  
     3     1    27 1   
     4     2    12 ar  
     5     2    13 ar  
     6     2    52 1   
     7     3     8 2   
     8     3    21 1   
     9     3    32 1   
    10     4     7 ar  
    11     4    11 ar  
    12     4    17 1   
    13     5    18 1   
    14     5    23 ar  
    15     5    28 ar  
    16     6    10 ar  
    17     6    26 1   
    18     7    20 ar  
    19     7    33 1   
    20     8    20 1   
    21     8    34 1   
    22     9    10 ar  
    23     9    19 ar  
    24     9    35 1   
    25    10    36 1   
    26    11    16 ar  
    27    11    37 1   
    28    12    28 ar  
    29    12    38 1   
    30    13    14 1   
    31    13    23 ar  
    32    14    17 1   
    33    14    24 2   
    34    15    16 ar  
    35    15    20 ar  
    36    15    21 1   
    37    17    39 1   
    38    18    40 1   
    39    18    51 1   
    40    19    22 ar  
    41    19    51 1   
    42    21    41 1   
    43    22    42 1   
    44    23    43 1   
    45    25    51 2   
    46    26    30 1   
    47    26    44 1   
    48    28    45 1   
    49    29    31 1   
    50    29    46 1   
    51    30    31 1   
    52    30    47 1   
    53    30    48 1   
    54    31    49 1   
    55    31    50 1   
@<TRIPOS>SUBSTRUCTURE
     1 1IW         1 TEMP              0 ****  ****    0 ROOT
