@<TRIPOS>MOLECULE
1IW
   52    55     1     0     0
SMALL
abcg2


@<TRIPOS>ATOM
      1 C11         26.6770    -6.5600    -2.8740 ca         1 1IW       0.015000
      2 C13         23.8960     1.1620     0.4640 ca         1 1IW       0.112000
      3 C15         15.2960     2.0440    -0.8620 cc         1 1IW      -0.153100
      4 C16         19.7470     1.3430    -1.1640 ca         1 1IW      -0.121000
      5 C17         25.0300    -1.2870    -0.2310 ca         1 1IW      -0.019000
      6 C19         27.5940    -7.0190    -1.9040 ca         1 1IW       0.377000
      7 C20         18.7880     1.4020    -0.1650 ca         1 1IW      -0.028000
      8 C21         16.2200     1.7840     0.1090 cd         1 1IW      -0.232200
      9 C23         26.9650    -5.0820    -0.5750 ca         1 1IW      -0.027000
     10 C24         27.7000    -6.2370    -0.7400 ca         1 1IW      -0.212000
     11 C25         19.3720     1.5520    -2.5020 ca         1 1IW       0.332900
     12 C26         25.2680     0.9860     0.5510 ca         1 1IW      -0.082000
     13 C1          23.0830     0.1190     0.0400 ca         1 1IW      -0.124600
     14 C2          21.5860     0.2140    -0.0040 c          1 1IW       0.623700
     15 C4          17.2310     1.8490    -1.9340 ca         1 1IW       0.351500
     16 N5          18.1380     1.8130    -2.8950 nb         1 1IW      -0.667000
     17 N6          21.1080     1.1040    -0.8990 ns         1 1IW      -0.137000
     18 N7          25.6560    -2.4950    -0.5380 ns         1 1IW      -0.149000
     19 C8          26.0710    -4.6430    -1.5510 ca         1 1IW      -0.221600
     20 C9          17.4760     1.6520    -0.5550 ca         1 1IW      -0.120800
     21 N10         15.9000     2.0840    -2.0880 na         1 1IW      -0.325400
     22 C12         25.9320    -5.4180    -2.7020 ca         1 1IW       0.008000
     23 C14         23.6500    -1.1080    -0.2850 ca         1 1IW      -0.078000
     24 O18         20.8940    -0.4960     0.7000 o          1 1IW      -0.567100
     25 O22         24.2060    -3.2960    -2.0890 o          1 1IW      -0.577100
     26 N27         28.3400    -8.1280    -2.1110 nu         1 1IW      -0.942200
     27 CL28        26.4780    -7.4710    -4.3410 cl         1 1IW      -0.203000
     28 C29         25.8290    -0.2260     0.1960 ca         1 1IW      -0.146000
     29 O31         27.6140   -10.5770    -0.7580 oh         1 1IW      -0.661000
     30 C32         29.1280    -8.7800    -1.0910 c3         1 1IW       0.217800
     31 C33         28.3120    -9.5620    -0.0770 c3         1 1IW       0.128600
     32 H39         14.2340     2.2060    -0.7720 h4         1 1IW       0.214000
     33 H40         19.0430     1.2720     0.8770 ha         1 1IW       0.143000
     34 H41         16.0250     1.6970     1.1660 ha         1 1IW       0.210000
     35 H42         27.0830    -4.5460     0.3590 ha         1 1IW       0.110000
     36 H43         28.3670    -6.5380     0.0560 ha         1 1IW       0.117000
     37 H44         20.1310     1.5060    -3.2770 h4         1 1IW       0.018100
     38 H45         25.9020     1.7930     0.8920 ha         1 1IW       0.132000
     39 H34         21.7720     1.5520    -1.5140 hn         1 1IW       0.161000
     40 H35         26.6030    -2.5820    -0.2020 hn         1 1IW       0.154000
     41 H36         15.4340     2.2570    -2.9640 hn         1 1IW       0.360000
     42 H37         25.2390    -5.1180    -3.4770 ha         1 1IW       0.150000
     43 H38         22.9990    -1.9160    -0.5770 ha         1 1IW       0.159000
     44 H46         28.0860    -8.7060    -2.8960 hn         1 1IW       0.505000
     45 H47         26.9040    -0.3480     0.2560 ha         1 1IW       0.117000
     46 H48         27.0190   -11.0070    -0.1380 ho         1 1IW       0.451000
     47 H49         29.8180    -9.4540    -1.6000 h1         1 1IW       0.063200
     48 H50         29.7490    -8.0510    -0.5680 h1         1 1IW       0.063200
     49 H52         27.6280    -8.8850     0.4520 h1         1 1IW       0.029200
     50 H51         29.0030    -9.9660     0.6750 h1         1 1IW       0.029200
     51 C3          25.2210    -3.4360    -1.4270 c          1 1IW       0.631700
     52 CL30        23.2140     2.6810     0.9420 cl         1 1IW      -0.189000
@<TRIPOS>BOND
     1     1     6 ar  
     2     1    22 ar  
     3     1    27 1   
     4     2    12 ar  
     5     2    13 ar  
     6     2    52 1   
     7     3     8 2   
     8     3    21 1   
     9     3    32 1   
    10     4     7 ar  
    11     4    11 ar  
    12     4    17 1   
    13     5    18 1   
    14     5    23 ar  
    15     5    28 ar  
    16     6    10 ar  
    17     6    26 1   
    18     7    20 ar  
    19     7    33 1   
    20     8    20 1   
    21     8    34 1   
    22     9    10 ar  
    23     9    19 ar  
    24     9    35 1   
    25    10    36 1   
    26    11    16 ar  
    27    11    37 1   
    28    12    28 ar  
    29    12    38 1   
    30    13    14 1   
    31    13    23 ar  
    32    14    17 1   
    33    14    24 2   
    34    15    16 ar  
    35    15    20 ar  
    36    15    21 1   
    37    17    39 1   
    38    18    40 1   
    39    18    51 1   
    40    19    22 ar  
    41    19    51 1   
    42    21    41 1   
    43    22    42 1   
    44    23    43 1   
    45    25    51 2   
    46    26    30 1   
    47    26    44 1   
    48    28    45 1   
    49    29    31 1   
    50    29    46 1   
    51    30    31 1   
    52    30    47 1   
    53    30    48 1   
    54    31    49 1   
    55    31    50 1   
@<TRIPOS>SUBSTRUCTURE
     1 1IW         1 TEMP              0 ****  ****    0 ROOT
