@<TRIPOS>MOLECULE
1IX
   55    59     1     0     0
SMALL
No Charge or Current Charge


@<TRIPOS>ATOM
      1 C10        151.6170   172.4940   216.3580 ca         1 1IX      -0.149300
      2 C11        150.6580   173.4870   216.6710 ca         1 1IX       0.164000
      3 C12        151.0450   174.8280   216.8030 ca         1 1IX      -0.159000
      4 C13        152.3810   175.2020   216.6130 ca         1 1IX       0.227000
      5 C15        152.9600   172.8870   216.1680 ca         1 1IX      -0.055000
      6 N17        155.4110   175.2200   217.0940 nb         1 1IX      -0.179000
      7 C18        156.7150   175.5180   216.9450 ca         1 1IX       0.133900
      8 N19        157.4720   175.2820   215.8560 nb         1 1IX      -0.175000
      9 C20        156.8710   174.6950   214.7990 ca         1 1IX       0.072000
     10 C21        155.5000   174.3450   214.8560 ca         1 1IX      -0.168000
     11 C22        154.8850   173.7550   213.7320 ca         1 1IX      -0.043000
     12 C01        148.9650   169.8320   210.1870 c3         1 1IX       0.157900
     13 C03        150.5550   170.1450   212.0310 ca         1 1IX       0.535300
     14 C06        151.0430   170.6880   214.6830 ca         1 1IX       0.256300
     15 C07        152.1430   170.4490   213.8300 ca         1 1IX      -0.066000
     16 C08        151.8880   170.1710   212.4720 ca         1 1IX      -0.144000
     17 C09        151.2220   171.0240   216.1720 c3         1 1IX       0.184300
     18 C14        153.3620   174.2400   216.2800 cp         1 1IX      -0.199500
     19 C16        154.7890   174.6210   216.0600 cp         1 1IX       0.211500
     20 C23        155.6330   173.5000   212.5730 ca         1 1IX      -0.156000
     21 C24        156.9960   173.8310   212.5100 ca         1 1IX       0.350000
     22 C25        157.6030   174.4290   213.6290 ca         1 1IX      -0.196000
     23 C27        159.2110   173.3010   211.3810 c6         1 1IX       0.169300
     24 C28        159.7140   172.5280   210.1250 c6         1 1IX       0.144100
     25 C30        157.8430   173.2810   208.8110 c6         1 1IX       0.144100
     26 C31        157.2560   174.0860   210.0090 c6         1 1IX       0.169300
     27 F32        152.7110   176.5080   216.7220 f          1 1IX      -0.155000
     28 N04        149.5330   170.3820   212.8970 nb         1 1IX      -0.413000
     29 N05        149.7720   170.6510   214.2000 nb         1 1IX      -0.269000
     30 N26        157.7340   173.5630   211.3320 nh         1 1IX      -0.797400
     31 O29        159.2840   173.1870   208.9100 os         1 1IX      -0.438000
     32 O34        152.2000   170.1700   216.7970 oh         1 1IX      -0.651000
     33 Cl1        148.9510   173.0990   216.8920 cl         1 1IX      -0.169000
     34 H1         150.3050   175.5860   217.0430 ha         1 1IX       0.153000
     35 H2         153.7120   172.1390   215.9240 ha         1 1IX       0.138000
     36 H3         157.2070   175.9960   217.7900 h5         1 1IX       0.050100
     37 H4         153.8280   173.4990   213.7380 ha         1 1IX       0.118000
     38 H5         148.9720   169.6020   209.1150 h1         1 1IX       0.052033
     39 H6         148.3730   169.0600   210.6960 h1         1 1IX       0.052033
     40 H7         148.4640   170.8000   210.3230 h1         1 1IX       0.052033
     41 H8         153.1600   170.4770   214.2120 ha         1 1IX       0.135000
     42 H9         152.6980   169.9800   211.7750 ha         1 1IX       0.143000
     43 H10        150.2560   170.8450   216.6620 h1         1 1IX       0.080700
     44 H11        155.1500   173.0320   211.7210 ha         1 1IX       0.116000
     45 H12        158.6510   174.7070   213.5920 ha         1 1IX       0.137000
     46 H13        159.4640   172.7090   212.2730 h1         1 1IX       0.053700
     47 H14        159.7590   174.2520   211.4510 h1         1 1IX       0.053700
     48 H15        159.3200   171.5020   210.1370 h1         1 1IX       0.055950
     49 H16        160.8110   172.4720   210.1360 h1         1 1IX       0.055950
     50 H17        157.5780   173.7730   207.8650 h1         1 1IX       0.055950
     51 H18        157.4150   172.2680   208.7980 h1         1 1IX       0.055950
     52 H19        157.5480   175.1410   209.9000 h1         1 1IX       0.053700
     53 H20        156.1590   174.0480   209.9430 h1         1 1IX       0.053700
     54 H21        152.2480   170.4380   217.7420 ho         1 1IX       0.457000
     55 O02        150.3100   169.8720   210.7020 os         1 1IX      -0.456300
@<TRIPOS>BOND
     1     1     2 ar  
     2     1     5 ar  
     3     1    17 1   
     4     2     3 ar  
     5     2    33 1   
     6     3     4 ar  
     7     3    34 1   
     8     4    18 ar  
     9     4    27 1   
    10     5    18 ar  
    11     5    35 1   
    12     6     7 ar  
    13     6    19 ar  
    14     7     8 ar  
    15     7    36 1   
    16     8     9 ar  
    17     9    10 ar  
    18     9    22 ar  
    19    10    11 ar  
    20    10    19 ar  
    21    11    20 ar  
    22    11    37 1   
    23    12    38 1   
    24    12    39 1   
    25    12    40 1   
    26    12    55 1   
    27    13    16 ar  
    28    13    28 ar  
    29    13    55 1   
    30    14    15 ar  
    31    14    17 1   
    32    14    29 ar  
    33    15    16 ar  
    34    15    41 1   
    35    16    42 1   
    36    17    32 1   
    37    17    43 1   
    38    18    19 1   
    39    20    21 ar  
    40    20    44 1   
    41    21    22 ar  
    42    21    30 1   
    43    22    45 1   
    44    23    24 1   
    45    23    30 1   
    46    23    46 1   
    47    23    47 1   
    48    24    31 1   
    49    24    48 1   
    50    24    49 1   
    51    25    26 1   
    52    25    31 1   
    53    25    50 1   
    54    25    51 1   
    55    26    30 1   
    56    26    52 1   
    57    26    53 1   
    58    28    29 ar  
    59    32    54 1   
@<TRIPOS>SUBSTRUCTURE
     1 1IX         1 TEMP              0 ****  ****    0 ROOT
