@<TRIPOS>MOLECULE
1IX
   55    59     1     0     0
SMALL
abcg2


@<TRIPOS>ATOM
      1 C10        151.7700   172.3790   216.0720 ca         1 1IX      -0.149300
      2 C11        150.8110   173.3470   216.3540 ca         1 1IX       0.164000
      3 C12        151.1450   174.6770   216.5470 ca         1 1IX      -0.159000
      4 C13        152.4710   175.0430   216.4410 ca         1 1IX       0.227000
      5 C15        153.0890   172.8000   215.9700 ca         1 1IX      -0.055000
      6 N17        155.4400   175.1070   217.0650 nb         1 1IX      -0.179000
      7 C18        156.7390   175.4370   216.9590 ca         1 1IX       0.133900
      8 N19        157.5260   175.2370   215.9400 nb         1 1IX      -0.175000
      9 C20        156.9770   174.6550   214.8450 ca         1 1IX       0.072000
     10 C21        155.6080   174.2960   214.8340 ca         1 1IX      -0.168000
     11 C22        155.0770   173.7510   213.6420 ca         1 1IX      -0.043000
     12 C01        147.9010   169.5780   210.8400 c3         1 1IX       0.157900
     13 C03        149.7790   170.3080   212.0770 ca         1 1IX       0.535300
     14 C06        150.8640   170.7280   214.4560 ca         1 1IX       0.256300
     15 C07        151.6420   171.0270   213.3240 ca         1 1IX      -0.066000
     16 C08        151.0910   170.8140   212.0960 ca         1 1IX      -0.144000
     17 C09        151.4090   170.9200   215.8500 c3         1 1IX       0.184300
     18 C14        153.4670   174.1280   216.1420 cp         1 1IX      -0.199500
     19 C16        154.8850   174.5340   216.0210 cp         1 1IX       0.211500
     20 C23        155.8660   173.5400   212.5550 ca         1 1IX      -0.156000
     21 C24        157.2610   173.8590   212.5640 ca         1 1IX       0.350000
     22 C25        157.7800   174.4370   213.7150 ca         1 1IX      -0.196000
     23 C27        159.4500   173.9210   211.4980 c6         1 1IX       0.169300
     24 C28        160.2170   173.1300   210.4530 c6         1 1IX       0.144100
     25 C30        158.3360   172.8210   209.1630 c6         1 1IX       0.144100
     26 C31        157.4760   173.6120   210.1280 c6         1 1IX       0.169300
     27 F32        152.7860   176.3300   216.6060 f          1 1IX      -0.155000
     28 N04        149.1020   170.0390   213.1700 nb         1 1IX      -0.413000
     29 N05        149.6490   170.2450   214.3550 nb         1 1IX      -0.269000
     30 N26        158.0400   173.5720   211.4720 nh         1 1IX      -0.797400
     31 O29        159.6680   173.2700   209.1660 os         1 1IX      -0.438000
     32 O34        152.5200   170.0720   215.9660 oh         1 1IX      -0.651000
     33 CL1        149.1420   172.9120   216.4670 cl         1 1IX      -0.169000
     34 H1         150.3900   175.4190   216.7680 ha         1 1IX       0.153000
     35 H2         153.8570   172.0670   215.7560 ha         1 1IX       0.138000
     36 H3         157.1740   175.9140   217.8310 h5         1 1IX       0.050100
     37 H4         154.0260   173.5020   213.5780 ha         1 1IX       0.118000
     38 H5         147.6610   169.4910   209.7840 h1         1 1IX       0.052033
     39 H6         147.8380   168.5950   211.3080 h1         1 1IX       0.052033
     40 H7         147.1860   170.2450   211.3210 h1         1 1IX       0.052033
     41 H8         152.6470   171.4150   213.4220 ha         1 1IX       0.135000
     42 H9         151.6240   171.0180   211.1770 ha         1 1IX       0.143000
     43 H10        150.6170   170.6380   216.5530 h1         1 1IX       0.080700
     44 H11        155.4090   173.1040   211.6800 ha         1 1IX       0.116000
     45 H12        158.8100   174.7550   213.7850 ha         1 1IX       0.137000
     46 H13        159.8780   173.6680   212.4670 h1         1 1IX       0.053700
     47 H14        159.5910   174.9990   211.3430 h1         1 1IX       0.053700
     48 H15        160.2370   172.0710   210.7480 h1         1 1IX       0.055950
     49 H16        161.2470   173.4880   210.4180 h1         1 1IX       0.055950
     50 H17        157.9450   172.9410   208.1520 h1         1 1IX       0.055950
     51 H18        158.2870   171.7530   209.4220 h1         1 1IX       0.055950
     52 H19        157.3880   174.6510   209.7850 h1         1 1IX       0.053700
     53 H20        156.4800   173.1780   210.1080 h1         1 1IX       0.053700
     54 H21        152.8090   170.0630   216.8860 ho         1 1IX       0.457000
     55 O02        149.2240   170.1000   210.8910 os         1 1IX      -0.456300
@<TRIPOS>BOND
     1     1     2 ar  
     2     1     5 ar  
     3     1    17 1   
     4     2     3 ar  
     5     2    33 1   
     6     3     4 ar  
     7     3    34 1   
     8     4    18 ar  
     9     4    27 1   
    10     5    18 ar  
    11     5    35 1   
    12     6     7 ar  
    13     6    19 ar  
    14     7     8 ar  
    15     7    36 1   
    16     8     9 ar  
    17     9    10 ar  
    18     9    22 ar  
    19    10    11 ar  
    20    10    19 ar  
    21    11    20 ar  
    22    11    37 1   
    23    12    38 1   
    24    12    39 1   
    25    12    40 1   
    26    12    55 1   
    27    13    16 ar  
    28    13    28 ar  
    29    13    55 1   
    30    14    15 ar  
    31    14    17 1   
    32    14    29 ar  
    33    15    16 ar  
    34    15    41 1   
    35    16    42 1   
    36    17    32 1   
    37    17    43 1   
    38    18    19 1   
    39    20    21 ar  
    40    20    44 1   
    41    21    22 ar  
    42    21    30 1   
    43    22    45 1   
    44    23    24 1   
    45    23    30 1   
    46    23    46 1   
    47    23    47 1   
    48    24    31 1   
    49    24    48 1   
    50    24    49 1   
    51    25    26 1   
    52    25    31 1   
    53    25    50 1   
    54    25    51 1   
    55    26    30 1   
    56    26    52 1   
    57    26    53 1   
    58    28    29 ar  
    59    32    54 1   
@<TRIPOS>SUBSTRUCTURE
     1 1IX         1 TEMP              0 ****  ****    0 ROOT
