@<TRIPOS>MOLECULE
1IZ
   55    57     1     0     0
SMALL
abcg2


@<TRIPOS>ATOM
      1 C10         17.3990     1.0240     1.0160 ca         1 1IZ      -0.170000
      2 C11         16.4060     1.9960     1.0320 ca         1 1IZ      -0.124000
      3 C15         25.9190    -5.8140    -2.4850 ca         1 1IZ      -0.050000
      4 C16         27.0340    -6.5740    -2.7820 ca         1 1IZ       0.084100
      5 C17         27.7850    -7.1860    -1.7920 ca         1 1IZ      -0.081000
      6 C18         27.3990    -7.0260    -0.4700 ca         1 1IZ      -0.111000
      7 C19         26.2880    -6.2590    -0.1500 ca         1 1IZ      -0.080000
      8 C21         26.9690    -7.6760    -4.8460 c3         1 1IZ       0.514000
      9 C25         23.2840    -1.9170     0.1880 c6         1 1IZ      -0.085700
     10 C26         22.1400    -1.0370     0.7310 c6         1 1IZ      -0.045700
     11 C27         22.2910     0.4010     0.2260 c6         1 1IZ      -0.070400
     12 C28         23.6570     0.9950     0.5440 c6         1 1IZ      -0.075400
     13 C1          20.7690    -1.6430     0.4000 c3         1 1IZ      -0.079400
     14 C2          23.1980    -3.3490     0.7320 c3         1 1IZ       0.105000
     15 N3          24.2900    -4.2050     0.3170 ns         1 1IZ      -0.498900
     16 C4          19.5540    -0.8210     0.7890 c3         1 1IZ       0.165600
     17 C5          24.3290    -4.8110    -0.8780 c          1 1IZ       0.610700
     18 O6          23.4410    -4.7120    -1.7130 o          1 1IZ      -0.591100
     19 C7          25.5480    -5.6400    -1.1540 ca         1 1IZ      -0.143600
     20 O8          19.3060     0.1560    -0.2140 os         1 1IZ      -0.340100
     21 C9          18.2980     1.0210    -0.0440 ca         1 1IZ       0.094100
     22 C12         16.3430     2.9230     0.0080 ca         1 1IZ       0.292900
     23 N13         17.2050     2.9230    -1.0070 nb         1 1IZ      -0.637000
     24 C14         18.1500     2.0030    -1.0320 ca         1 1IZ       0.306900
     25 F22         25.6410    -7.6340    -4.9680 f          1 1IZ      -0.107000
     26 F23         27.5030    -7.5760    -6.0520 f          1 1IZ      -0.107000
     27 F24         27.2730    -8.8780    -4.3520 f          1 1IZ      -0.107000
     28 C29         24.7730     0.1250    -0.0100 c6         1 1IZ      -0.073400
     29 C30         24.6470    -1.3000     0.5070 c6         1 1IZ      -0.070400
     30 H38         17.4530     0.2980     1.8160 ha         1 1IZ       0.120000
     31 H39         15.6900     2.0280     1.8420 ha         1 1IZ       0.120000
     32 H42         25.3550    -5.3370    -3.2750 ha         1 1IZ       0.157000
     33 H43         28.6630    -7.7660    -2.0450 ha         1 1IZ       0.137000
     34 H44         27.9670    -7.5050     0.3150 ha         1 1IZ       0.125000
     35 H45         26.0010    -6.1670     0.8900 ha         1 1IZ       0.118000
     36 H46         23.1750    -1.9620    -0.9040 hc         1 1IZ       0.071700
     37 H47         22.2360    -1.0140     1.8260 hc         1 1IZ       0.037700
     38 H48         22.1330     0.4220    -0.8590 hc         1 1IZ       0.048700
     39 H49         21.5180     1.0360     0.6630 hc         1 1IZ       0.048700
     40 H50         23.7220     2.0090     0.1400 hc         1 1IZ       0.039700
     41 H51         23.7720     1.0870     1.6300 hc         1 1IZ       0.039700
     42 H31         20.7070    -1.8810    -0.6670 hc         1 1IZ       0.058200
     43 H32         20.6630    -2.5940     0.9250 hc         1 1IZ       0.058200
     44 H33         23.2050    -3.3250     1.8240 h1         1 1IZ       0.053700
     45 H34         22.2670    -3.8260     0.4310 h1         1 1IZ       0.053700
     46 H35         25.1100    -4.2240     0.9000 hn         1 1IZ       0.314500
     47 H37         18.6810    -1.4770     0.8800 h1         1 1IZ       0.035200
     48 H36         19.7060    -0.3400     1.7630 h1         1 1IZ       0.035200
     49 H40         15.5780     3.6910     0.0010 h4         1 1IZ       0.021100
     50 H41         18.8420     2.0210    -1.8680 h4         1 1IZ       0.031100
     51 H53         24.7230     0.1220    -1.1040 hc         1 1IZ       0.042200
     52 H52         25.7510     0.5360     0.2540 hc         1 1IZ       0.042200
     53 H55         24.7960    -1.3080     1.5940 hc         1 1IZ       0.034700
     54 H54         25.4440    -1.9150     0.0810 hc         1 1IZ       0.034700
     55 O20         27.4520    -6.6720    -4.1040 os         1 1IZ      -0.403100
@<TRIPOS>BOND
     1     1     2 ar  
     2     1    21 ar  
     3     1    30 1   
     4     2    22 ar  
     5     2    31 1   
     6     3     4 ar  
     7     3    19 ar  
     8     3    32 1   
     9     4     5 ar  
    10     4    55 1   
    11     5     6 ar  
    12     5    33 1   
    13     6     7 ar  
    14     6    34 1   
    15     7    19 ar  
    16     7    35 1   
    17     8    25 1   
    18     8    26 1   
    19     8    27 1   
    20     8    55 1   
    21     9    10 1   
    22     9    14 1   
    23     9    29 1   
    24     9    36 1   
    25    10    11 1   
    26    10    13 1   
    27    10    37 1   
    28    11    12 1   
    29    11    38 1   
    30    11    39 1   
    31    12    28 1   
    32    12    40 1   
    33    12    41 1   
    34    13    16 1   
    35    13    42 1   
    36    13    43 1   
    37    14    15 1   
    38    14    44 1   
    39    14    45 1   
    40    15    17 1   
    41    15    46 1   
    42    16    20 1   
    43    16    47 1   
    44    16    48 1   
    45    17    18 2   
    46    17    19 1   
    47    20    21 1   
    48    21    24 ar  
    49    22    23 ar  
    50    22    49 1   
    51    23    24 ar  
    52    24    50 1   
    53    28    29 1   
    54    28    51 1   
    55    28    52 1   
    56    29    53 1   
    57    29    54 1   
@<TRIPOS>SUBSTRUCTURE
     1 1IZ         1 TEMP              0 ****  ****    0 ROOT
