@<TRIPOS>MOLECULE
1IZ
   55    57     1     0     0
SMALL
No Charge or Current Charge


@<TRIPOS>ATOM
      1 C10         17.3040     1.0670     1.0160 ca         1 1IZ      -0.170000
      2 C11         16.2910     2.0430     1.0490 ca         1 1IZ      -0.124000
      3 C15         25.9790    -6.2480    -2.4070 ca         1 1IZ      -0.050000
      4 C16         27.1450    -7.0090    -2.6630 ca         1 1IZ       0.084100
      5 C17         28.0860    -7.1890    -1.6380 ca         1 1IZ      -0.081000
      6 C18         27.8760    -6.6220    -0.3720 ca         1 1IZ      -0.111000
      7 C19         26.7190    -5.8680    -0.1180 ca         1 1IZ      -0.080000
      8 C21         26.5670    -7.5110    -5.0430 c3         1 1IZ       0.514000
      9 C25         23.2960    -2.0110     0.2190 c6         1 1IZ      -0.085700
     10 C26         22.1180    -1.0960     0.7180 c6         1 1IZ      -0.045700
     11 C27         22.2990     0.3600     0.1840 c6         1 1IZ      -0.070400
     12 C28         23.6790     0.9520     0.5490 c6         1 1IZ      -0.075400
     13 C1          20.7080    -1.6810     0.3460 c3         1 1IZ      -0.079400
     14 C2          23.1970    -3.4770     0.7590 c3         1 1IZ       0.105000
     15 N3          24.3150    -4.3360     0.3580 ns         1 1IZ      -0.498900
     16 C4          19.4750    -0.8560     0.7840 c3         1 1IZ       0.165600
     17 C5          24.4910    -4.8620    -0.9040 c          1 1IZ       0.610700
     18 O6          23.6640    -4.6830    -1.7880 o          1 1IZ      -0.591100
     19 C7          25.7520    -5.6710    -1.1350 ca         1 1IZ      -0.143600
     20 O8          19.2330     0.1650    -0.2000 os         1 1IZ      -0.340100
     21 C9          18.2030     1.0790    -0.0740 ca         1 1IZ       0.094100
     22 C12         16.2040     2.9900     0.0110 ca         1 1IZ       0.292900
     23 N13         17.0590     3.0120    -1.0390 nb         1 1IZ      -0.637000
     24 C14         18.0360     2.0700    -1.0710 ca         1 1IZ       0.306900
     25 F22         26.3910    -6.2330    -5.4510 f          1 1IZ      -0.107000
     26 F23         27.1040    -8.1850    -6.0840 f          1 1IZ      -0.107000
     27 F24         25.3470    -8.0480    -4.8140 f          1 1IZ      -0.107000
     28 C29         24.8200     0.0550     0.0310 c6         1 1IZ      -0.073400
     29 C30         24.6780    -1.3810     0.5800 c6         1 1IZ      -0.070400
     30 H38         17.3730     0.3350     1.8160 ha         1 1IZ       0.120000
     31 H39         15.5770     2.0730     1.8680 ha         1 1IZ       0.120000
     32 H42         25.2390    -6.0960    -3.1860 ha         1 1IZ       0.157000
     33 H43         28.9840    -7.7720    -1.8280 ha         1 1IZ       0.137000
     34 H44         28.6120    -6.7680     0.4160 ha         1 1IZ       0.125000
     35 H45         26.5920    -5.4440     0.8750 ha         1 1IZ       0.118000
     36 H46         23.2320    -2.0850    -0.8760 hc         1 1IZ       0.071700
     37 H47         22.1520    -1.0590     1.8160 hc         1 1IZ       0.037700
     38 H48         22.1670     0.3760    -0.9070 hc         1 1IZ       0.048700
     39 H49         21.5280     1.0190     0.6030 hc         1 1IZ       0.048700
     40 H50         23.7750     1.9610     0.1240 hc         1 1IZ       0.039700
     41 H51         23.7580     1.0630     1.6400 hc         1 1IZ       0.039700
     42 H31         20.6450    -1.8650    -0.7340 hc         1 1IZ       0.058200
     43 H32         20.5880    -2.6590     0.8230 hc         1 1IZ       0.058200
     44 H33         23.1580    -3.4500     1.8560 h1         1 1IZ       0.053700
     45 H34         22.2720    -3.9450     0.4000 h1         1 1IZ       0.053700
     46 H35         25.0360    -4.5330     1.0400 hn         1 1IZ       0.314500
     47 H37         18.6060    -1.5230     0.8490 h1         1 1IZ       0.035200
     48 H36         19.6530    -0.4220     1.7770 h1         1 1IZ       0.035200
     49 H40         15.4260     3.7530     0.0200 h4         1 1IZ       0.021100
     50 H41         18.7120     2.1080    -1.9240 h4         1 1IZ       0.031100
     51 H53         24.8110     0.0370    -1.0680 hc         1 1IZ       0.042200
     52 H52         25.7900     0.4750     0.3300 hc         1 1IZ       0.042200
     53 H55         24.8090    -1.3730     1.6710 hc         1 1IZ       0.034700
     54 H54         25.4970    -1.9890     0.1730 hc         1 1IZ       0.034700
     55 O20         27.4240    -7.5980    -3.8850 os         1 1IZ      -0.403100
@<TRIPOS>BOND
     1     1     2 ar  
     2     1    21 ar  
     3     1    30 1   
     4     2    22 ar  
     5     2    31 1   
     6     3     4 ar  
     7     3    19 ar  
     8     3    32 1   
     9     4     5 ar  
    10     4    55 1   
    11     5     6 ar  
    12     5    33 1   
    13     6     7 ar  
    14     6    34 1   
    15     7    19 ar  
    16     7    35 1   
    17     8    25 1   
    18     8    26 1   
    19     8    27 1   
    20     8    55 1   
    21     9    10 1   
    22     9    14 1   
    23     9    29 1   
    24     9    36 1   
    25    10    11 1   
    26    10    13 1   
    27    10    37 1   
    28    11    12 1   
    29    11    38 1   
    30    11    39 1   
    31    12    28 1   
    32    12    40 1   
    33    12    41 1   
    34    13    16 1   
    35    13    42 1   
    36    13    43 1   
    37    14    15 1   
    38    14    44 1   
    39    14    45 1   
    40    15    17 1   
    41    15    46 1   
    42    16    20 1   
    43    16    47 1   
    44    16    48 1   
    45    17    18 2   
    46    17    19 1   
    47    20    21 1   
    48    21    24 ar  
    49    22    23 ar  
    50    22    49 1   
    51    23    24 ar  
    52    24    50 1   
    53    28    29 1   
    54    28    51 1   
    55    28    52 1   
    56    29    53 1   
    57    29    54 1   
@<TRIPOS>SUBSTRUCTURE
     1 1IZ         1 TEMP              0 ****  ****    0 ROOT
