@<TRIPOS>MOLECULE
1J0
   57    62     1     0     0
SMALL
abcg2


@<TRIPOS>ATOM
      1 C13         -6.4640     5.9060     4.5650 c6         1 1J0       0.075000
      2 C14         -6.6010     4.6170     5.3980 c6         1 1J0       0.150300
      3 C15         -7.7370     6.1500     3.7600 c6         1 1J0      -0.103400
      4 C16         -7.8350     4.6760     6.2800 ca         1 1J0      -0.203300
      5 O01         -6.1350     6.9690     5.4080 oh         1 1J0      -0.635000
      6 O02         -5.3900     4.4190     6.0730 oh         1 1J0      -0.621000
      7 O05         -6.9640     3.0210     7.7230 oh         1 1J0      -0.510100
      8 O06        -10.3320     3.2000    10.1320 os         1 1J0      -0.322200
      9 O07         -3.4140     5.4540     1.5330 oh         1 1J0      -0.508100
     10 O08         -6.3440     1.0560     2.9570 oh         1 1J0      -0.510100
     11 O09         -8.3690     2.3080     9.7810 o          1 1J0      -0.532000
     12 O10         -5.1370    -0.2420     1.0970 o          1 1J0      -0.434100
     13 O11         -2.4590     4.0600    -0.4170 o          1 1J0      -0.485100
     14 O12         -3.1970    -0.5600    -0.5510 os         1 1J0      -0.299100
     15 C17         -8.9120     6.3640     4.7030 c6         1 1J0      -0.053100
     16 C18         -8.9210     5.4870     5.9290 ca         1 1J0       0.018700
     17 C19         -5.2830     5.7600     3.6150 c          1 1J0       0.609700
     18 C20         -6.6990     3.4030     4.4690 c          1 1J0       0.614700
     19 C21         -5.0590     4.4710     2.9390 ca         1 1J0      -0.204600
     20 C22         -5.7830     3.3360     3.3240 ca         1 1J0      -0.206600
     21 C23         -7.9420     3.8570     7.4170 ca         1 1J0       0.285100
     22 C24        -10.0630     5.5420     6.7210 ca         1 1J0      -0.181000
     23 C25         -9.1030     3.9250     8.2180 ca         1 1J0      -0.329600
     24 C26        -10.1640     4.7780     7.8700 ca         1 1J0       0.083200
     25 C27         -4.1290     4.4020     1.8860 ca         1 1J0       0.207100
     26 C28         -5.6360     2.1220     2.6320 ca         1 1J0       0.210100
     27 C29         -4.6930     2.0470     1.5830 ca         1 1J0      -0.129600
     28 C30         -3.9590     3.1760     1.2050 ca         1 1J0      -0.118600
     29 C31        -11.3150     4.8080     8.7290 cc         1 1J0      -0.277200
     30 C32         -9.2140     3.0980     9.3950 c          1 1J0       0.697700
     31 C33         -4.4780     0.7470     0.8910 c          1 1J0       0.575900
     32 C34         -2.9940     3.0810     0.0620 c          1 1J0       0.590900
     33 C35        -11.3620     4.0360     9.8200 cd         1 1J0       0.147900
     34 C36         -3.3680     0.6690    -0.1080 cc         1 1J0       0.086900
     35 C37         -2.6970     1.7670    -0.4860 cd         1 1J0      -0.401200
     36 C38        -12.4630     3.9640    10.8110 c3         1 1J0      -0.055900
     37 C39         -2.1860    -0.7880    -1.5230 c3         1 1J0       0.138900
     38 H1          -7.6130     7.0210     3.1160 hc         1 1J0       0.070700
     39 H2          -7.9320     5.3030     3.0970 hc         1 1J0       0.070700
     40 H3          -6.9150     7.2970     5.8690 ho         1 1J0       0.463000
     41 H4          -5.2070     5.2080     6.6020 ho         1 1J0       0.471000
     42 H5          -3.6330     6.1900     2.1500 ho         1 1J0       0.514000
     43 H6          -6.9790     1.3110     3.6630 ho         1 1J0       0.516000
     44 H7          -7.2140     2.5410     8.5440 ho         1 1J0       0.520000
     45 H8          -8.9540     7.4080     5.0270 hc         1 1J0       0.065700
     46 H9          -9.8410     6.2070     4.1530 hc         1 1J0       0.065700
     47 H12        -10.8830     6.1900     6.4340 ha         1 1J0       0.124000
     48 H13        -12.1450     5.4610     8.5010 ha         1 1J0       0.207000
     49 H14         -1.9260     1.7440    -1.2450 ha         1 1J0       0.210000
     50 H15        -12.1080     4.2360    11.8070 hc         1 1J0       0.067367
     51 H16        -13.2640     4.6450    10.5330 hc         1 1J0       0.067367
     52 H17        -12.8720     2.9540    10.8720 hc         1 1J0       0.067367
     53 H18         -2.2000    -1.8530    -1.7350 h1         1 1J0       0.051367
     54 H19         -2.3880    -0.2330    -2.4410 h1         1 1J0       0.051367
     55 H20         -1.2020    -0.5080    -1.1420 h1         1 1J0       0.051367
     56 O03         -4.5830     6.7280     3.3790 o          1 1J0      -0.509100
     57 O04         -7.4870     2.5060     4.7100 o          1 1J0      -0.518100
@<TRIPOS>BOND
     1     1     2 1   
     2     1     3 1   
     3     1     5 1   
     4     1    17 1   
     5     2     4 1   
     6     2     6 1   
     7     2    18 1   
     8     3    15 1   
     9     3    38 1   
    10     3    39 1   
    11     4    16 ar  
    12     4    21 ar  
    13     5    40 1   
    14     6    41 1   
    15     7    21 1   
    16     7    44 1   
    17     8    30 1   
    18     8    33 1   
    19     9    25 1   
    20     9    42 1   
    21    10    26 1   
    22    10    43 1   
    23    11    30 2   
    24    12    31 2   
    25    13    32 2   
    26    14    34 1   
    27    14    37 1   
    28    15    16 1   
    29    15    45 1   
    30    15    46 1   
    31    16    22 ar  
    32    17    19 1   
    33    17    56 2   
    34    18    20 1   
    35    18    57 2   
    36    19    20 ar  
    37    19    25 ar  
    38    20    26 ar  
    39    21    23 ar  
    40    22    24 ar  
    41    22    47 1   
    42    23    24 ar  
    43    23    30 1   
    44    24    29 1   
    45    25    28 ar  
    46    26    27 ar  
    47    27    28 ar  
    48    27    31 1   
    49    28    32 1   
    50    29    33 2   
    51    29    48 1   
    52    31    34 1   
    53    32    35 1   
    54    33    36 1   
    55    34    35 2   
    56    35    49 1   
    57    36    50 1   
    58    36    51 1   
    59    36    52 1   
    60    37    53 1   
    61    37    54 1   
    62    37    55 1   
@<TRIPOS>SUBSTRUCTURE
     1 1J0         1 TEMP              0 ****  ****    0 ROOT
