@<TRIPOS>MOLECULE
1J0
   57    62     1     0     0
SMALL
No Charge or Current Charge


@<TRIPOS>ATOM
      1 C13         -6.2530     5.9050     4.6990 c6         1 1J0       0.075000
      2 C14         -6.3560     4.7070     5.7010 c6         1 1J0       0.150300
      3 C15         -7.4980     5.8590     3.7680 c6         1 1J0      -0.103400
      4 C16         -7.7210     4.7120     6.4790 ca         1 1J0      -0.203300
      5 O01         -6.2470     7.1650     5.4350 oh         1 1J0      -0.635000
      6 O02         -5.2560     4.9110     6.6170 oh         1 1J0      -0.621000
      7 O05         -6.8550     3.3690     8.2960 oh         1 1J0      -0.510100
      8 O06        -10.6040     3.4000    10.3030 os         1 1J0      -0.322200
      9 O07         -3.4160     5.4830     1.4890 oh         1 1J0      -0.508100
     10 O08         -5.8780     0.9080     3.4350 oh         1 1J0      -0.510100
     11 O09         -8.4440     2.7590    10.2640 o          1 1J0      -0.532000
     12 O10         -4.9460    -0.4260     1.3200 o          1 1J0      -0.434100
     13 O11         -2.4750     4.0180    -0.5550 o          1 1J0      -0.485100
     14 O12         -3.4430    -0.5140    -1.0310 os         1 1J0      -0.299100
     15 C17         -8.8110     6.0610     4.5500 c6         1 1J0      -0.053100
     16 C18         -8.8550     5.3420     5.9020 ca         1 1J0       0.018700
     17 C19         -4.9500     5.7340     3.8490 c          1 1J0       0.609700
     18 C20         -6.1810     3.3110     4.9720 c          1 1J0       0.614700
     19 C21         -4.7810     4.4130     3.1310 ca         1 1J0      -0.204600
     20 C22         -5.4060     3.2470     3.6490 ca         1 1J0      -0.206600
     21 C23         -7.8940     4.0420     7.7280 ca         1 1J0       0.285100
     22 C24        -10.0810     5.3370     6.5790 ca         1 1J0      -0.181000
     23 C25         -9.1450     4.0460     8.3930 ca         1 1J0      -0.329600
     24 C26        -10.2220     4.7000     7.8130 ca         1 1J0       0.083200
     25 C27         -4.0160     4.3420     1.9430 ca         1 1J0       0.207100
     26 C28         -5.2740     2.0250     2.9360 ca         1 1J0       0.210100
     27 C29         -4.5300     1.9470     1.7230 ca         1 1J0      -0.129600
     28 C30         -3.8840     3.1230     1.2240 ca         1 1J0      -0.118600
     29 C31        -11.4970     4.7140     8.4810 cc         1 1J0      -0.277200
     30 C32         -9.3600     3.3580     9.7130 c          1 1J0       0.697700
     31 C33         -4.4130     0.6190     0.9600 c          1 1J0       0.575900
     32 C34         -3.0630     3.0640    -0.0660 c          1 1J0       0.590900
     33 C35        -11.6360     4.0750     9.6910 cd         1 1J0       0.147900
     34 C36         -3.5980     0.6460    -0.2860 cc         1 1J0       0.086900
     35 C37         -2.9720     1.7800    -0.7620 cd         1 1J0      -0.401200
     36 C38        -12.9270     4.0350    10.4620 c3         1 1J0      -0.055900
     37 C39         -2.6790    -0.5990    -2.2520 c3         1 1J0       0.138900
     38 H1          -7.4160     6.6350     2.9930 hc         1 1J0       0.070700
     39 H2          -7.5520     4.9070     3.2230 hc         1 1J0       0.070700
     40 H3          -7.1470     7.2900     5.8080 ho         1 1J0       0.463000
     41 H4          -5.2910     5.8650     6.8530 ho         1 1J0       0.471000
     42 H5          -3.4600     6.1580     2.2100 ho         1 1J0       0.514000
     43 H6          -6.2750     1.1480     4.3100 ho         1 1J0       0.516000
     44 H7          -7.1950     2.9890     9.1420 ho         1 1J0       0.520000
     45 H8          -8.9800     7.1350     4.7150 hc         1 1J0       0.065700
     46 H9          -9.6530     5.7260     3.9280 hc         1 1J0       0.065700
     47 H12        -10.9400     5.8350     6.1350 ha         1 1J0       0.124000
     48 H13        -12.3520     5.2230     8.0460 ha         1 1J0       0.207000
     49 H14         -2.3750     1.8270    -1.6630 ha         1 1J0       0.210000
     50 H15        -12.7630     3.7510    11.5080 hc         1 1J0       0.067367
     51 H16        -13.4180     5.0150    10.4580 hc         1 1J0       0.067367
     52 H17        -13.6200     3.3090    10.0220 hc         1 1J0       0.067367
     53 H18         -2.7120    -1.6210    -2.6470 h1         1 1J0       0.051367
     54 H19         -3.0880     0.0710    -3.0190 h1         1 1J0       0.051367
     55 H20         -1.6270    -0.3400    -2.0750 h1         1 1J0       0.051367
     56 O03         -4.1040     6.6210     3.7560 o          1 1J0      -0.509100
     57 O04         -6.6090     2.2780     5.4820 o          1 1J0      -0.518100
@<TRIPOS>BOND
     1     1     2 1   
     2     1     3 1   
     3     1     5 1   
     4     1    17 1   
     5     2     4 1   
     6     2     6 1   
     7     2    18 1   
     8     3    15 1   
     9     3    38 1   
    10     3    39 1   
    11     4    16 ar  
    12     4    21 ar  
    13     5    40 1   
    14     6    41 1   
    15     7    21 1   
    16     7    44 1   
    17     8    30 1   
    18     8    33 1   
    19     9    25 1   
    20     9    42 1   
    21    10    26 1   
    22    10    43 1   
    23    11    30 2   
    24    12    31 2   
    25    13    32 2   
    26    14    34 1   
    27    14    37 1   
    28    15    16 1   
    29    15    45 1   
    30    15    46 1   
    31    16    22 ar  
    32    17    19 1   
    33    17    56 2   
    34    18    20 1   
    35    18    57 2   
    36    19    20 ar  
    37    19    25 ar  
    38    20    26 ar  
    39    21    23 ar  
    40    22    24 ar  
    41    22    47 1   
    42    23    24 ar  
    43    23    30 1   
    44    24    29 1   
    45    25    28 ar  
    46    26    27 ar  
    47    27    28 ar  
    48    27    31 1   
    49    28    32 1   
    50    29    33 2   
    51    29    48 1   
    52    31    34 1   
    53    32    35 1   
    54    33    36 1   
    55    34    35 2   
    56    35    49 1   
    57    36    50 1   
    58    36    51 1   
    59    36    52 1   
    60    37    53 1   
    61    37    54 1   
    62    37    55 1   
@<TRIPOS>SUBSTRUCTURE
     1 1J0         1 TEMP              0 ****  ****    0 ROOT
