@<TRIPOS>MOLECULE
1J1
   35    35     1     0     0
SMALL
abcg2


@<TRIPOS>ATOM
      1 C4          -1.9480    -0.5030     0.3320 c3         1 1J1      -0.076400
      2 C5          -0.6520     0.0300    -0.2650 c3         1 1J1      -0.095400
      3 C6           0.5690    -0.6800     0.2960 c3         1 1J1       0.100000
      4 C10          3.0060    -0.4380     0.1700 c          1 1J1       0.610100
      5 C13          6.1650     1.3850     0.1690 c5         1 1J1      -0.176700
      6 C1          -5.6370     0.6700    -0.0460 c          1 1J1       0.724000
      7 O9          -5.6650     1.7860     0.5130 o          1 1J1      -0.731500
      8 C2          -4.5040    -0.2810     0.3980 c3         1 1J1       0.021500
      9 N18         -4.8260    -1.6590     0.0590 n8         1 1J1      -0.987200
     10 C3          -3.1780     0.2330    -0.1860 c3         1 1J1      -0.100400
     11 N7           1.7840    -0.1610    -0.2980 ns         1 1J1      -0.501900
     12 O16          3.2080    -1.1680     1.1300 o          1 1J1      -0.598100
     13 C11          4.1480     0.2710    -0.5390 c5         1 1J1       0.005500
     14 C12          4.6410     1.4970     0.2670 c5         1 1J1      -0.095400
     15 C14          6.3310    -0.0290    -0.2940 c2         1 1J1       0.395200
     16 N17          5.2850    -0.6320    -0.6710 n2         1 1J1      -0.531900
     17 H1          -2.0240    -1.5730     0.1140 hc         1 1J1       0.031700
     18 H2          -1.9110    -0.4150     1.4230 hc         1 1J1       0.031700
     19 H3          -0.6790    -0.0900    -1.3530 hc         1 1J1       0.038700
     20 H4          -0.5700     1.1030    -0.0700 hc         1 1J1       0.038700
     21 H5           0.6110    -0.5440     1.3790 h1         1 1J1       0.050200
     22 H6           0.4880    -1.7570     0.1160 h1         1 1J1       0.050200
     23 H7           6.5940     2.0660    -0.5730 hc         1 1J1       0.058700
     24 H8           6.6830     1.5780     1.1090 hc         1 1J1       0.058700
     25 H10         -4.4240    -0.2130     1.4900 h1         1 1J1       0.043700
     26 H11         -5.0760    -1.7000    -0.9210 hn         1 1J1       0.374000
     27 H12         -4.0150    -2.2520     0.1790 hn         1 1J1       0.374000
     28 H14         -3.0770     1.2960     0.0510 hc         1 1J1       0.042700
     29 H15         -3.2160     0.1600    -1.2800 hc         1 1J1       0.042700
     30 H16          1.6990     0.4110    -1.1230 hn         1 1J1       0.310500
     31 H17          3.8350     0.5710    -1.5450 h1         1 1J1       0.071700
     32 H18          4.3260     1.4300     1.3090 hc         1 1J1       0.062200
     33 H19          4.2520     2.4300    -0.1360 hc         1 1J1       0.062200
     34 H20          7.3000    -0.5210    -0.3420 h4         1 1J1       0.027800
     35 O8          -6.4020     0.2740    -0.9470 o          1 1J1      -0.731500
@<TRIPOS>BOND
     1     1     2 1   
     2     1    10 1   
     3     1    17 1   
     4     1    18 1   
     5     2     3 1   
     6     2    19 1   
     7     2    20 1   
     8     3    11 1   
     9     3    21 1   
    10     3    22 1   
    11     4    11 1   
    12     4    12 2   
    13     4    13 1   
    14     5    14 1   
    15     5    15 1   
    16     5    23 1   
    17     5    24 1   
    18     6     7 1   
    19     6     8 1   
    20     6    35 1   
    21     8     9 1   
    22     8    10 1   
    23     8    25 1   
    24     9    26 1   
    25     9    27 1   
    26    10    28 1   
    27    10    29 1   
    28    11    30 1   
    29    13    14 1   
    30    13    16 1   
    31    13    31 1   
    32    14    32 1   
    33    14    33 1   
    34    15    16 2   
    35    15    34 1   
@<TRIPOS>SUBSTRUCTURE
     1 1J1         1 TEMP              0 ****  ****    0 ROOT
