@<TRIPOS>MOLECULE
1J1
   35    35     1     0     0
SMALL
No Charge or Current Charge


@<TRIPOS>ATOM
      1 C4          -2.0280    -0.4600     0.3800 c3         1 1J1      -0.076400
      2 C5          -0.6790     0.0500    -0.1730 c3         1 1J1      -0.095400
      3 C6           0.5360    -0.5810     0.5330 c3         1 1J1       0.100000
      4 C10          3.0410    -0.4180     0.4770 c          1 1J1       0.610100
      5 C13          6.2840     1.3610    -0.1550 c5         1 1J1      -0.176700
      6 C1          -5.7820     0.6980    -0.2860 c          1 1J1       0.724000
      7 O9          -6.3760     1.3990     0.5240 o          1 1J1      -0.731500
      8 C2          -4.6270    -0.2540     0.2450 c3         1 1J1       0.021500
      9 N18         -4.8320    -1.7340     0.0470 n8         1 1J1      -0.987200
     10 C3          -3.2500     0.1760    -0.3290 c3         1 1J1      -0.100400
     11 N7           1.7960    -0.0770    -0.0100 ns         1 1J1      -0.501900
     12 O16          3.2000    -1.1920     1.4150 o          1 1J1      -0.598100
     13 C11          4.1530     0.3140    -0.3550 c5         1 1J1       0.005500
     14 C12          4.9220     1.3190     0.5660 c5         1 1J1      -0.095400
     15 C14          6.3190    -0.0080    -0.7750 c2         1 1J1       0.395200
     16 N17          5.1970    -0.6260    -0.8990 n2         1 1J1      -0.531900
     17 H1          -2.0630    -1.5510     0.2720 hc         1 1J1       0.031700
     18 H2          -2.0800    -0.2420     1.4540 hc         1 1J1       0.031700
     19 H3          -0.6230    -0.1670    -1.2470 hc         1 1J1       0.038700
     20 H4          -0.6320     1.1410    -0.0620 hc         1 1J1       0.038700
     21 H5           0.4960    -0.3530     1.6070 h1         1 1J1       0.050200
     22 H6           0.5090    -1.6720     0.4100 h1         1 1J1       0.050200
     23 H7           6.3200     2.1360    -0.9300 hc         1 1J1       0.058700
     24 H8           7.1220     1.5260     0.5320 hc         1 1J1       0.058700
     25 H10         -4.5810    -0.0880     1.3310 h1         1 1J1       0.043700
     26 H11         -4.9560    -1.9150    -0.9560 hn         1 1J1       0.374000
     27 H12         -3.9620    -2.2240     0.2820 hn         1 1J1       0.374000
     28 H14         -3.1680     1.2670    -0.2410 hc         1 1J1       0.042700
     29 H15         -3.2120    -0.0500    -1.4020 hc         1 1J1       0.042700
     30 H16          1.7660     0.5630    -0.7940 hn         1 1J1       0.310500
     31 H17          3.6810     0.8420    -1.1960 h1         1 1J1       0.071700
     32 H18          5.0350     0.9260     1.5850 hc         1 1J1       0.062200
     33 H19          4.4340     2.2980     0.6390 hc         1 1J1       0.062200
     34 H20          7.2460    -0.4740    -1.1010 h4         1 1J1       0.027800
     35 O8          -6.0850     0.6460    -1.4730 o          1 1J1      -0.731500
@<TRIPOS>BOND
     1     1     2 1   
     2     1    10 1   
     3     1    17 1   
     4     1    18 1   
     5     2     3 1   
     6     2    19 1   
     7     2    20 1   
     8     3    11 1   
     9     3    21 1   
    10     3    22 1   
    11     4    11 1   
    12     4    12 2   
    13     4    13 1   
    14     5    14 1   
    15     5    15 1   
    16     5    23 1   
    17     5    24 1   
    18     6     7 1   
    19     6     8 1   
    20     6    35 1   
    21     8     9 1   
    22     8    10 1   
    23     8    25 1   
    24     9    26 1   
    25     9    27 1   
    26    10    28 1   
    27    10    29 1   
    28    11    30 1   
    29    13    14 1   
    30    13    16 1   
    31    13    31 1   
    32    14    32 1   
    33    14    33 1   
    34    15    16 2   
    35    15    34 1   
@<TRIPOS>SUBSTRUCTURE
     1 1J1         1 TEMP              0 ****  ****    0 ROOT
