@<TRIPOS>MOLECULE
1J2
   64    68     1     0     0
SMALL
No Charge or Current Charge


@<TRIPOS>ATOM
      1 N1          -4.6830    -1.8820     1.1500 nb         1 1J2      -0.258000
      2 C2          -4.0110    -0.9290     0.4820 ca         1 1J2       0.415900
      3 N3          -2.7140    -0.6160     0.6130 nb         1 1J2      -0.297000
      4 C4          -1.9870    -1.3180     1.5100 ca         1 1J2       0.288500
      5 C5          -2.6120    -2.3350     2.2590 ca         1 1J2      -0.316000
      6 C6          -3.9740    -2.5880     2.0460 ca         1 1J2       0.166900
      7 N7          -0.6320    -1.0990     1.7560 na         1 1J2      -0.108200
      8 C8           1.4150    -1.3490     0.8090 cc         1 1J2      -0.207200
      9 C9           0.2230    -2.0090     1.0900 cd         1 1J2      -0.163100
     10 C10          1.2580     0.0210     1.2270 ca         1 1J2      -0.112800
     11 C11         -0.0000     0.1350     1.7560 ca         1 1J2      -0.001200
     12 C12         -0.4880     1.3610     2.2280 ca         1 1J2      -0.113000
     13 C13          0.3520     2.4900     2.1360 ca         1 1J2      -0.083000
     14 C14          1.6490     2.3700     1.5830 ca         1 1J2      -0.182000
     15 C15          2.1280     1.1240     1.1160 ca         1 1J2       0.310000
     16 N16          3.4230     0.9860     0.5650 nh         1 1J2      -0.775400
     17 N17         -4.6960    -0.1730    -0.4580 nu         1 1J2      -0.918100
     18 C18         -6.1480    -0.1970    -0.7040 c6         1 1J2       0.244500
     19 C19         -6.4360     0.4030    -2.1040 c6         1 1J2      -0.090400
     20 C20         -7.9600     0.4660    -2.3860 c6         1 1J2      -0.090400
     21 C21         -8.7030     1.2690    -1.2890 c6         1 1J2       0.168300
     22 C22         -8.4130     0.6770     0.1150 c6         1 1J2      -0.090400
     23 C23         -6.8890     0.6110     0.3950 c6         1 1J2      -0.090400
     24 O24        -10.1090     1.2510    -1.5460 oh         1 1J2      -0.658000
     25 C25          4.0260     2.0870    -0.2350 c6         1 1J2       0.197800
     26 C26          5.0540     1.5350    -1.2560 c6         1 1J2      -0.059900
     27 C27          6.1470     0.6700    -0.5580 c6         1 1J2      -0.267700
     28 C28          5.4630    -0.4440     0.2930 c6         1 1J2      -0.059900
     29 C29          4.4280     0.1530     1.2790 c6         1 1J2       0.197800
     30 S30          7.3710     0.0110    -1.7570 s6         1 1J2       1.069000
     31 O31          6.6950    -0.9780    -2.6070 o          1 1J2      -0.516000
     32 O32          8.0380     1.1560    -2.3900 o          1 1J2      -0.516000
     33 C33          8.6130    -0.8620    -0.8040 c3         1 1J2      -0.333100
     34 H1          -2.0530    -2.9130     2.9900 ha         1 1J2       0.139000
     35 H2          -4.5040    -3.3630     2.5980 h4         1 1J2       0.022100
     36 H3           2.2670    -1.7760     0.2860 ha         1 1J2       0.212000
     37 H4          -0.0800    -3.0250     0.8500 h4         1 1J2       0.218000
     38 H5          -1.4850     1.4410     2.6550 ha         1 1J2       0.139000
     39 H6           0.0020     3.4550     2.4940 ha         1 1J2       0.110000
     40 H7           2.2840     3.2500     1.5300 ha         1 1J2       0.112000
     41 H8          -4.1340     0.5350    -0.9290 hn         1 1J2       0.502000
     42 H9          -6.5220    -1.2340    -0.7010 h1         1 1J2       0.083700
     43 H10         -6.0100     1.4140    -2.1760 hc         1 1J2       0.049450
     44 H11         -5.9440    -0.2010    -2.8780 hc         1 1J2       0.049450
     45 H12         -8.1350     0.9280    -3.3680 hc         1 1J2       0.054200
     46 H13         -8.3660    -0.5530    -2.4440 hc         1 1J2       0.054200
     47 H14         -8.3370     2.3060    -1.3110 h1         1 1J2       0.026700
     48 H15         -8.9020     1.2850     0.8880 hc         1 1J2       0.054200
     49 H16         -8.8440    -0.3320     0.1910 hc         1 1J2       0.054200
     50 H17         -6.7180     0.1550     1.3790 hc         1 1J2       0.049450
     51 H18         -6.4820     1.6300     0.4490 hc         1 1J2       0.049450
     52 H19        -10.5250     1.8430    -0.8810 ho         1 1J2       0.443000
     53 H20          3.2440     2.6320    -0.7840 h1         1 1J2       0.041950
     54 H21          4.5270     2.8060     0.4300 h1         1 1J2       0.041950
     55 H22          4.5220     0.9350    -2.0080 hc         1 1J2       0.065950
     56 H23          5.5140     2.3740    -1.7950 hc         1 1J2       0.065950
     57 H24          6.7370     1.3140     0.1070 h1         1 1J2       0.088700
     58 H25          4.9560    -1.1650    -0.3640 hc         1 1J2       0.065950
     59 H26          6.2100    -1.0120     0.8630 hc         1 1J2       0.065950
     60 H27          4.9530     0.7640     2.0280 h1         1 1J2       0.041950
     61 H28          3.9370    -0.6700     1.8200 h1         1 1J2       0.041950
     62 H29          8.1310    -1.7230    -0.3290 h1         1 1J2       0.102367
     63 H30          9.3940    -1.1860    -1.4990 h1         1 1J2       0.102367
     64 H31          9.0110    -0.1670    -0.0580 h1         1 1J2       0.102367
@<TRIPOS>BOND
     1     1     2 ar  
     2     1     6 ar  
     3     2     3 ar  
     4     2    17 1   
     5     3     4 ar  
     6     4     5 ar  
     7     4     7 1   
     8     5     6 ar  
     9     5    34 1   
    10     6    35 1   
    11     7     9 1   
    12     7    11 1   
    13     8     9 2   
    14     8    10 1   
    15     8    36 1   
    16     9    37 1   
    17    10    11 ar  
    18    10    15 ar  
    19    11    12 ar  
    20    12    13 ar  
    21    12    38 1   
    22    13    14 ar  
    23    13    39 1   
    24    14    15 ar  
    25    14    40 1   
    26    15    16 1   
    27    16    25 1   
    28    16    29 1   
    29    17    18 1   
    30    17    41 1   
    31    18    19 1   
    32    18    23 1   
    33    18    42 1   
    34    19    20 1   
    35    19    43 1   
    36    19    44 1   
    37    20    21 1   
    38    20    45 1   
    39    20    46 1   
    40    21    22 1   
    41    21    24 1   
    42    21    47 1   
    43    22    23 1   
    44    22    48 1   
    45    22    49 1   
    46    23    50 1   
    47    23    51 1   
    48    24    52 1   
    49    25    26 1   
    50    25    53 1   
    51    25    54 1   
    52    26    27 1   
    53    26    55 1   
    54    26    56 1   
    55    27    28 1   
    56    27    30 1   
    57    27    57 1   
    58    28    29 1   
    59    28    58 1   
    60    28    59 1   
    61    29    60 1   
    62    29    61 1   
    63    30    31 2   
    64    30    32 2   
    65    30    33 1   
    66    33    62 1   
    67    33    63 1   
    68    33    64 1   
@<TRIPOS>SUBSTRUCTURE
     1 1J2         1 TEMP              0 ****  ****    0 ROOT
