@<TRIPOS>MOLECULE
1J2
   64    68     1     0     0
SMALL
bcc


@<TRIPOS>ATOM
      1 N1          -4.6670    -1.9620     0.5300 nb         1 1J2      -0.784000
      2 C2          -4.1640    -0.8390     0.0110 ca         1 1J2       0.941900
      3 N3          -2.8590    -0.5610    -0.1180 nb         1 1J2      -0.823000
      4 C4          -1.9980    -1.4610     0.3050 ca         1 1J2       0.616800
      5 C5          -2.4110    -2.6720     0.8720 ca         1 1J2      -0.464600
      6 C6          -3.7760    -2.8510     0.9460 ca         1 1J2       0.495200
      7 N7          -0.6480    -1.1610     0.1660 na         1 1J2      -0.108200
      8 C8           1.5670    -1.5100     0.0950 cc         1 1J2      -0.157200
      9 C9           0.3620    -2.1070     0.2300 cd         1 1J2      -0.113100
     10 C10          1.3270    -0.1040    -0.0500 ca         1 1J2      -0.112800
     11 C11         -0.0660     0.0890    -0.0260 ca         1 1J2      -0.001200
     12 C12         -0.6320     1.3560    -0.1900 ca         1 1J2      -0.131000
     13 C13          0.2420     2.4080    -0.3800 ca         1 1J2      -0.101000
     14 C14          1.6310     2.2390    -0.3890 ca         1 1J2      -0.200000
     15 C15          2.2020     0.9860    -0.2160 ca         1 1J2       0.171600
     16 N16          3.5840     0.7540    -0.2230 nh         1 1J2      -0.637000
     17 N17         -5.0140     0.0940    -0.4480 nu         1 1J2      -0.862900
     18 C18         -6.4540     0.0390    -0.3130 c6         1 1J2       0.244500
     19 C19         -7.0980     0.8990    -1.3960 c6         1 1J2      -0.090400
     20 C20         -8.6190     0.8790    -1.2880 c6         1 1J2      -0.090400
     21 C21         -9.0790     1.3230     0.0920 c6         1 1J2       0.145100
     22 C22         -8.4460     0.4490     1.1690 c6         1 1J2      -0.090400
     23 C23         -6.9250     0.4800     1.0740 c6         1 1J2      -0.090400
     24 O24        -10.4910     1.2700     0.1190 oh         1 1J2      -0.595800
     25 C25          4.4170     1.7700    -0.8370 c6         1 1J2       0.197800
     26 C26          5.8010     1.2090    -1.1350 c6         1 1J2      -0.059900
     27 C27          6.4290     0.6740     0.1480 c6         1 1J2      -0.156900
     28 C28          5.5140    -0.3400     0.8220 c6         1 1J2      -0.059900
     29 C29          4.1470     0.2890     1.0400 c6         1 1J2       0.197800
     30 S30          8.0440    -0.0250    -0.2410 s6         1 1J2       0.989000
     31 O31          7.8510    -1.2560    -1.0120 o          1 1J2      -0.586800
     32 O32          8.8640     1.0320    -0.8390 o          1 1J2      -0.586800
     33 C33          8.7530    -0.4500     1.3360 c3         1 1J2      -0.222300
     34 H1          -1.7350    -3.4170     1.2610 ha         1 1J2       0.157000
     35 H2          -4.1740    -3.7630     1.3780 h4         1 1J2       0.022100
     36 H3           2.5160    -2.0200     0.0730 ha         1 1J2       0.162000
     37 H4           0.1350    -3.1540     0.3320 h4         1 1J2       0.168000
     38 H5          -1.6980     1.5080    -0.1900 ha         1 1J2       0.157000
     39 H6          -0.1600     3.4040    -0.5190 ha         1 1J2       0.128000
     40 H7           2.2560     3.1110    -0.5220 ha         1 1J2       0.130000
     41 H8          -4.5990     0.9570    -0.7630 hn         1 1J2       0.446800
     42 H9          -6.7630    -0.9990    -0.4690 h1         1 1J2       0.083700
     43 H10         -6.7410     1.9310    -1.2990 hc         1 1J2       0.049450
     44 H11         -6.7880     0.5480    -2.3820 hc         1 1J2       0.049450
     45 H12         -9.0500     1.5290    -2.0540 hc         1 1J2       0.054200
     46 H13         -8.9910    -0.1330    -1.4820 hc         1 1J2       0.054200
     47 H14         -8.7330     2.3570     0.2490 h1         1 1J2       0.026700
     48 H15         -8.7640     0.7840     2.1610 hc         1 1J2       0.054200
     49 H16         -8.8030    -0.5800     1.0510 hc         1 1J2       0.054200
     50 H17         -6.4860    -0.1670     1.8360 hc         1 1J2       0.049450
     51 H18         -6.5570     1.4930     1.2680 hc         1 1J2       0.049450
     52 H19        -10.7860     1.5620     0.9880 ho         1 1J2       0.404000
     53 H20          3.9610     2.0860    -1.7750 h1         1 1J2       0.041950
     54 H21          4.5150     2.6650    -0.2030 h1         1 1J2       0.041950
     55 H22          5.7100     0.4080    -1.8720 hc         1 1J2       0.065950
     56 H23          6.4160     1.9980    -1.5670 hc         1 1J2       0.065950
     57 H24          6.6360     1.5040     0.8330 h1         1 1J2       0.088700
     58 H25          5.4150    -1.2320     0.2010 hc         1 1J2       0.065950
     59 H26          5.9120    -0.6480     1.7910 hc         1 1J2       0.065950
     60 H27          4.2380     1.1210     1.7550 h1         1 1J2       0.041950
     61 H28          3.4840    -0.4450     1.4940 h1         1 1J2       0.041950
     62 H29          8.1850    -1.2530     1.7980 h1         1 1J2       0.102367
     63 H30          9.7720    -0.7830     1.1450 h1         1 1J2       0.102367
     64 H31          8.7640     0.4290     1.9770 h1         1 1J2       0.102367
@<TRIPOS>BOND
     1     1     2 ar  
     2     1     6 ar  
     3     2     3 ar  
     4     2    17 1   
     5     3     4 ar  
     6     4     5 ar  
     7     4     7 1   
     8     5     6 ar  
     9     5    34 1   
    10     6    35 1   
    11     7     9 1   
    12     7    11 1   
    13     8     9 2   
    14     8    10 1   
    15     8    36 1   
    16     9    37 1   
    17    10    11 ar  
    18    10    15 ar  
    19    11    12 ar  
    20    12    13 ar  
    21    12    38 1   
    22    13    14 ar  
    23    13    39 1   
    24    14    15 ar  
    25    14    40 1   
    26    15    16 1   
    27    16    25 1   
    28    16    29 1   
    29    17    18 1   
    30    17    41 1   
    31    18    19 1   
    32    18    23 1   
    33    18    42 1   
    34    19    20 1   
    35    19    43 1   
    36    19    44 1   
    37    20    21 1   
    38    20    45 1   
    39    20    46 1   
    40    21    22 1   
    41    21    24 1   
    42    21    47 1   
    43    22    23 1   
    44    22    48 1   
    45    22    49 1   
    46    23    50 1   
    47    23    51 1   
    48    24    52 1   
    49    25    26 1   
    50    25    53 1   
    51    25    54 1   
    52    26    27 1   
    53    26    55 1   
    54    26    56 1   
    55    27    28 1   
    56    27    30 1   
    57    27    57 1   
    58    28    29 1   
    59    28    58 1   
    60    28    59 1   
    61    29    60 1   
    62    29    61 1   
    63    30    31 2   
    64    30    32 2   
    65    30    33 1   
    66    33    62 1   
    67    33    63 1   
    68    33    64 1   
@<TRIPOS>SUBSTRUCTURE
     1 1J2         1 TEMP              0 ****  ****    0 ROOT
