@<TRIPOS>MOLECULE
1J3
   77    81     1     0     0
SMALL
bcc


@<TRIPOS>ATOM
      1 C1           1.7960     4.1610    -1.6550 c3         1 1J3       0.130700
      2 O2           1.1030     3.0420    -1.1370 os         1 1J3      -0.340900
      3 C3           1.8080     2.0290    -0.5950 ca         1 1J3       0.077100
      4 C4           3.1850     1.9820    -0.5340 ca         1 1J3      -0.136000
      5 C5           3.8390     0.8870     0.0370 ca         1 1J3      -0.148600
      6 C6           3.0760    -0.1410     0.5710 ca         1 1J3      -0.109000
      7 C7           1.6890    -0.1020     0.5200 ca         1 1J3      -0.147000
      8 C8           1.0290     0.9700    -0.0700 ca         1 1J3       0.177600
      9 N9          -0.3420     1.1110    -0.1860 nu         1 1J3      -0.721300
     10 C10         -1.3640     0.2580     0.1060 ca         1 1J3       0.914900
     11 N11         -1.1240    -0.9290     0.6440 nb         1 1J3      -0.752000
     12 C12         -2.1760    -1.7020     0.8680 ca         1 1J3       0.475200
     13 C13         -3.4690    -1.3040     0.5880 ca         1 1J3      -0.258000
     14 N14         -4.5790    -2.1320     0.8460 n          1 1J3      -0.366000
     15 C15         -4.7680    -2.6640     2.1910 c3         1 1J3       0.090300
     16 C16         -5.5960    -2.2980    -0.0350 c          1 1J3       0.691500
     17 O17         -6.6260    -2.8660     0.2740 o          1 1J3      -0.605500
     18 C18         -5.4120    -1.7200    -1.4470 c3         1 1J3       0.115500
     19 F19         -4.1440    -2.0910    -1.8890 f          1 1J3      -0.230300
     20 C20         -5.4890    -0.1810    -1.4350 c3         1 1J3       0.185800
     21 N21         -4.8850     0.4860    -0.2980 nh         1 1J3      -0.770300
     22 C22         -5.7770     0.8020     0.8210 c5         1 1J3       0.208500
     23 C23         -5.0620     1.4280     2.0150 c5         1 1J3      -0.085900
     24 C24         -6.2150     2.0340     2.8060 c5         1 1J3      -0.077900
     25 C25         -7.1300     2.6410     1.7310 c5         1 1J3      -0.077900
     26 C26         -6.8260     1.8600     0.4340 c5         1 1J3      -0.085900
     27 C27         -3.6160    -0.0220     0.0440 ca         1 1J3       0.694200
     28 N28         -2.5740     0.7380    -0.2010 nb         1 1J3      -0.739000
     29 C29         -6.4420    -2.2660    -2.3860 c2         1 1J3      -0.196200
     30 C30         -6.1700    -2.8680    -3.5350 c2         1 1J3      -0.175000
     31 C31          5.3310     0.9160     0.0590 c          1 1J3       0.703700
     32 O32          5.9490     1.9620    -0.0560 o          1 1J3      -0.575100
     33 N33          5.9290    -0.2860     0.2020 ns         1 1J3      -0.460300
     34 N34          7.3000    -0.3950     0.2700 n3         1 1J3      -0.449600
     35 C35          7.7460    -0.8630     1.5740 c6         1 1J3       0.149800
     36 C36          9.2620    -0.8670     1.6110 c6         1 1J3       0.164300
     37 N37          9.7960    -1.7040     0.5550 n3         1 1J3      -0.722600
     38 C38         11.2360    -1.7920     0.6150 c3         1 1J3       0.154100
     39 C39          9.3420    -1.2330    -0.7380 c6         1 1J3       0.164300
     40 C40          7.8270    -1.2220    -0.8040 c6         1 1J3       0.149800
     41 H1           1.0380     4.8510    -2.0150 h1         1 1J3       0.045367
     42 H2           2.3930     4.6570    -0.8860 h1         1 1J3       0.045367
     43 H3           2.4480     3.8840    -2.4870 h1         1 1J3       0.045367
     44 H4           3.7760     2.7920    -0.9390 ha         1 1J3       0.161000
     45 H5           3.5330    -0.9880     1.0650 ha         1 1J3       0.130000
     46 H6           1.1210    -0.9130     0.9450 ha         1 1J3       0.171000
     47 H7          -0.6550     1.9720    -0.6080 hn         1 1J3       0.477800
     48 H8          -1.9760    -2.6810     1.2920 h4         1 1J3       0.031100
     49 H9          -5.5940    -2.1600     2.6970 h1         1 1J3       0.048367
     50 H10         -4.9750    -3.7320     2.1640 h1         1 1J3       0.048367
     51 H11         -3.8640    -2.5030     2.7700 h1         1 1J3       0.048367
     52 H12         -5.0230     0.1540    -2.3670 h1         1 1J3       0.077200
     53 H13         -6.5340     0.1240    -1.4920 h1         1 1J3       0.077200
     54 H14         -6.3080    -0.0890     1.1890 h1         1 1J3       0.036700
     55 H15         -4.4770     0.7150     2.6000 hc         1 1J3       0.054200
     56 H16         -4.3830     2.2130     1.6690 hc         1 1J3       0.054200
     57 H17         -6.7420     1.2460     3.3500 hc         1 1J3       0.044950
     58 H18         -5.8810     2.7650     3.5430 hc         1 1J3       0.044950
     59 H19         -8.1810     2.5820     2.0130 hc         1 1J3       0.044950
     60 H20         -6.9010     3.6980     1.5910 hc         1 1J3       0.044950
     61 H21         -6.3970     2.5170    -0.3240 hc         1 1J3       0.054200
     62 H22         -7.7220     1.4120     0.0050 hc         1 1J3       0.054200
     63 H23         -7.4700    -2.0980    -2.0910 ha         1 1J3       0.143000
     64 H24         -6.9740    -3.2010    -4.1780 ha         1 1J3       0.123000
     65 H25         -5.1640    -3.0560    -3.8830 ha         1 1J3       0.123000
     66 H26          5.3780    -1.1360     0.2000 hn         1 1J3       0.303500
     67 H27          7.3640    -0.1870     2.3400 h1         1 1J3       0.045950
     68 H28          7.3670    -1.8730     1.7940 h1         1 1J3       0.045950
     69 H29          9.6230     0.1730     1.5330 h1         1 1J3       0.043700
     70 H30          9.5930    -1.2520     2.5780 h1         1 1J3       0.043700
     71 H32         11.5470    -2.1670     1.5910 h1         1 1J3       0.031700
     72 H33         11.6000    -2.4880    -0.1420 h1         1 1J3       0.031700
     73 H34         11.7400    -0.8270     0.4500 h1         1 1J3       0.031700
     74 H35          9.7230    -0.2210    -0.9590 h1         1 1J3       0.043700
     75 H36          9.7240    -1.8970    -1.5160 h1         1 1J3       0.043700
     76 H37          7.4540    -2.2560    -0.7400 h1         1 1J3       0.045950
     77 H38          7.5060    -0.8070    -1.7600 h1         1 1J3       0.045950
@<TRIPOS>BOND
     1     1     2 1   
     2     1    41 1   
     3     1    42 1   
     4     1    43 1   
     5     2     3 1   
     6     3     4 ar  
     7     3     8 ar  
     8     4     5 ar  
     9     4    44 1   
    10     5     6 ar  
    11     5    31 1   
    12     6     7 ar  
    13     6    45 1   
    14     7     8 ar  
    15     7    46 1   
    16     8     9 1   
    17     9    10 1   
    18     9    47 1   
    19    10    11 ar  
    20    10    28 ar  
    21    11    12 ar  
    22    12    13 ar  
    23    12    48 1   
    24    13    14 1   
    25    13    27 ar  
    26    14    15 1   
    27    14    16 1   
    28    15    49 1   
    29    15    50 1   
    30    15    51 1   
    31    16    17 2   
    32    16    18 1   
    33    18    19 1   
    34    18    20 1   
    35    18    29 1   
    36    20    21 1   
    37    20    52 1   
    38    20    53 1   
    39    21    22 1   
    40    21    27 1   
    41    22    23 1   
    42    22    26 1   
    43    22    54 1   
    44    23    24 1   
    45    23    55 1   
    46    23    56 1   
    47    24    25 1   
    48    24    57 1   
    49    24    58 1   
    50    25    26 1   
    51    25    59 1   
    52    25    60 1   
    53    26    61 1   
    54    26    62 1   
    55    27    28 ar  
    56    29    30 2   
    57    29    63 1   
    58    30    64 1   
    59    30    65 1   
    60    31    32 2   
    61    31    33 1   
    62    33    34 1   
    63    33    66 1   
    64    34    35 1   
    65    34    40 1   
    66    35    36 1   
    67    35    67 1   
    68    35    68 1   
    69    36    37 1   
    70    36    69 1   
    71    36    70 1   
    72    37    38 1   
    73    37    39 1   
    74    38    71 1   
    75    38    72 1   
    76    38    73 1   
    77    39    40 1   
    78    39    74 1   
    79    39    75 1   
    80    40    76 1   
    81    40    77 1   
@<TRIPOS>SUBSTRUCTURE
     1 1J3         1 TEMP              0 ****  ****    0 ROOT
