@<TRIPOS>MOLECULE
1J3
   77    81     1     0     0
SMALL
No Charge or Current Charge


@<TRIPOS>ATOM
      1 C1           1.5330     4.6070    -0.5490 c3         1 1J3       0.153900
      2 O2           0.9100     3.3120    -0.4460 os         1 1J3      -0.364100
      3 C3           1.6400     2.1380    -0.2910 ca         1 1J3       0.077100
      4 C4           3.0530     2.1430    -0.2280 ca         1 1J3      -0.118000
      5 C5           3.7810     0.9400    -0.0820 ca         1 1J3      -0.148600
      6 C6           3.0620    -0.2770    -0.0090 ca         1 1J3      -0.091000
      7 C7           1.6580    -0.2850    -0.0700 ca         1 1J3      -0.129000
      8 C8           0.9320     0.9130    -0.1940 ca         1 1J3       0.316000
      9 N9          -0.4730     0.9410    -0.2680 nu         1 1J3      -0.914900
     10 C10         -1.5100     0.1030     0.1260 ca         1 1J3       0.388900
     11 N11         -1.2200    -1.0050     0.8300 nb         1 1J3      -0.226000
     12 C12         -2.2590    -1.7720     1.2080 ca         1 1J3       0.146900
     13 C13         -3.5940    -1.4080     0.9380 ca         1 1J3      -0.220000
     14 N14         -4.6710    -2.3530     1.1580 n          1 1J3      -0.206400
     15 C15         -4.7020    -3.0650     2.4560 c3         1 1J3       0.090300
     16 C16         -5.6760    -2.6760     0.1940 c          1 1J3       0.549000
     17 O17         -6.6040    -3.4210     0.5060 o          1 1J3      -0.530000
     18 C18         -5.5330    -2.1360    -1.2770 c3         1 1J3       0.134200
     19 F19         -4.2860    -2.4230    -1.7480 f          1 1J3      -0.249000
     20 C20         -5.7330    -0.5940    -1.2930 c3         1 1J3       0.185800
     21 N21         -5.0490     0.1800    -0.2270 nh         1 1J3      -0.770300
     22 C22         -5.8970     0.9850     0.7090 c5         1 1J3       0.208500
     23 C23         -5.0280     1.7080     1.7720 c5         1 1J3      -0.085900
     24 C24         -6.0720     2.7090     2.3320 c5         1 1J3      -0.077900
     25 C25         -6.8610     3.1810     1.0660 c5         1 1J3      -0.077900
     26 C26         -6.4130     2.2160    -0.0780 c5         1 1J3      -0.085900
     27 C27         -3.7650    -0.2540     0.1460 ca         1 1J3       0.365900
     28 N28         -2.7320     0.5150    -0.2410 nb         1 1J3      -0.213000
     29 C29         -6.5470    -2.7630    -2.2470 c2         1 1J3      -0.246200
     30 C30         -6.3680    -2.9500    -3.5680 c2         1 1J3      -0.275000
     31 C31          5.3000     0.9860    -0.0170 c          1 1J3       0.636700
     32 O32          5.9190     2.0430    -0.0930 o          1 1J3      -0.575100
     33 N33          5.9520    -0.2360     0.1330 ns         1 1J3      -0.393300
     34 N34          7.3750    -0.3680     0.2100 n3         1 1J3      -0.449600
     35 C35          7.8330    -0.8980     1.5260 c6         1 1J3       0.149800
     36 C36          9.3880    -0.9860     1.5990 c6         1 1J3       0.164300
     37 N37          9.9630    -1.7810     0.4700 n3         1 1J3      -0.722600
     38 C38         11.4340    -1.9040     0.5490 c3         1 1J3       0.154100
     39 C39          9.4980    -1.2340    -0.8420 c6         1 1J3       0.164300
     40 C40          7.9430    -1.1470    -0.9260 c6         1 1J3       0.149800
     41 H1           0.7700     5.3870    -0.6650 h1         1 1J3       0.045367
     42 H2           2.1140     4.8330     0.3540 h1         1 1J3       0.045367
     43 H3           2.1990     4.6520    -1.4200 h1         1 1J3       0.045367
     44 H4           3.6000     3.0800    -0.2940 ha         1 1J3       0.143000
     45 H5           3.5730    -1.2310     0.0890 ha         1 1J3       0.112000
     46 H6           1.1450    -1.2390    -0.0380 ha         1 1J3       0.153000
     47 H7          -0.8100     1.8530    -0.5770 hn         1 1J3       0.533000
     48 H8          -2.0130    -2.6970     1.7260 h4         1 1J3       0.031100
     49 H9          -5.7030    -2.9950     2.8980 h1         1 1J3       0.048367
     50 H10         -4.4450    -4.1210     2.3030 h1         1 1J3       0.048367
     51 H11         -3.9840    -2.6180     3.1550 h1         1 1J3       0.048367
     52 H12         -5.4170    -0.2160    -2.2750 h1         1 1J3       0.077200
     53 H13         -6.8150    -0.4110    -1.2300 h1         1 1J3       0.077200
     54 H14         -6.7070     0.3950     1.1620 h1         1 1J3       0.036700
     55 H15         -4.6450     1.0290     2.5420 hc         1 1J3       0.054200
     56 H16         -4.1740     2.2410     1.3360 hc         1 1J3       0.054200
     57 H17         -6.7420     2.2150     3.0460 hc         1 1J3       0.044950
     58 H18         -5.6000     3.5430     2.8640 hc         1 1J3       0.044950
     59 H19         -7.9420     3.1220     1.2380 hc         1 1J3       0.044950
     60 H20         -6.6380     4.2240     0.8110 hc         1 1J3       0.044950
     61 H21         -5.6190     2.6720    -0.6820 hc         1 1J3       0.054200
     62 H22         -7.2360     1.9690    -0.7570 hc         1 1J3       0.054200
     63 H23         -7.4980    -3.0480    -1.7910 ha         1 1J3       0.193000
     64 H24         -7.1460    -3.3940    -4.1920 ha         1 1J3       0.173000
     65 H25         -5.4430    -2.6690    -4.0740 ha         1 1J3       0.173000
     66 H26          5.3700    -1.0650     0.1900 hn         1 1J3       0.303500
     67 H27          7.4750    -0.2540     2.3410 h1         1 1J3       0.045950
     68 H28          7.4150    -1.9010     1.6950 h1         1 1J3       0.045950
     69 H29          9.7960     0.0350     1.5890 h1         1 1J3       0.043700
     70 H30          9.6680    -1.4340     2.5640 h1         1 1J3       0.043700
     71 H32         11.7350    -2.3590     1.5030 h1         1 1J3       0.031700
     72 H33         11.8140    -2.5380    -0.2630 h1         1 1J3       0.031700
     73 H34         11.9150    -0.9190     0.4710 h1         1 1J3       0.031700
     74 H35          9.9130    -0.2270    -1.0000 h1         1 1J3       0.043700
     75 H36          9.8590    -1.8640    -1.6680 h1         1 1J3       0.043700
     76 H37          7.5330    -2.1670    -0.9270 h1         1 1J3       0.045950
     77 H38          7.6650    -0.6830    -1.8830 h1         1 1J3       0.045950
@<TRIPOS>BOND
     1     1     2 1   
     2     1    41 1   
     3     1    42 1   
     4     1    43 1   
     5     2     3 1   
     6     3     4 ar  
     7     3     8 ar  
     8     4     5 ar  
     9     4    44 1   
    10     5     6 ar  
    11     5    31 1   
    12     6     7 ar  
    13     6    45 1   
    14     7     8 ar  
    15     7    46 1   
    16     8     9 1   
    17     9    10 1   
    18     9    47 1   
    19    10    11 ar  
    20    10    28 ar  
    21    11    12 ar  
    22    12    13 ar  
    23    12    48 1   
    24    13    14 1   
    25    13    27 ar  
    26    14    15 1   
    27    14    16 1   
    28    15    49 1   
    29    15    50 1   
    30    15    51 1   
    31    16    17 2   
    32    16    18 1   
    33    18    19 1   
    34    18    20 1   
    35    18    29 1   
    36    20    21 1   
    37    20    52 1   
    38    20    53 1   
    39    21    22 1   
    40    21    27 1   
    41    22    23 1   
    42    22    26 1   
    43    22    54 1   
    44    23    24 1   
    45    23    55 1   
    46    23    56 1   
    47    24    25 1   
    48    24    57 1   
    49    24    58 1   
    50    25    26 1   
    51    25    59 1   
    52    25    60 1   
    53    26    61 1   
    54    26    62 1   
    55    27    28 ar  
    56    29    30 2   
    57    29    63 1   
    58    30    64 1   
    59    30    65 1   
    60    31    32 2   
    61    31    33 1   
    62    33    34 1   
    63    33    66 1   
    64    34    35 1   
    65    34    40 1   
    66    35    36 1   
    67    35    67 1   
    68    35    68 1   
    69    36    37 1   
    70    36    69 1   
    71    36    70 1   
    72    37    38 1   
    73    37    39 1   
    74    38    71 1   
    75    38    72 1   
    76    38    73 1   
    77    39    40 1   
    78    39    74 1   
    79    39    75 1   
    80    40    76 1   
    81    40    77 1   
@<TRIPOS>SUBSTRUCTURE
     1 1J3         1 TEMP              0 ****  ****    0 ROOT
