@<TRIPOS>MOLECULE
1J4
   74    78     1     0     0
SMALL
No Charge or Current Charge


@<TRIPOS>ATOM
      1 O7          -5.3700    -0.7710    -2.3840 o          1 1J4      -0.582100
      2 C6          -4.9950    -0.1900    -1.3760 c          1 1J4       0.624700
      3 N8          -5.9090     0.3290    -0.4840 ns         1 1J4      -0.502900
      4 C9          -7.3700     0.2330    -0.6000 c6         1 1J4       0.111700
      5 C10         -7.8760    -1.1330    -0.0800 c6         1 1J4      -0.092400
      6 C11         -9.4200    -1.2060    -0.1310 c6         1 1J4       0.167800
      7 N12        -10.0410    -0.0970     0.6430 n3         1 1J4      -0.718600
      8 C13        -11.5150    -0.2050     0.6960 c3         1 1J4       0.153100
      9 C14         -9.5880     1.2340     0.1540 c6         1 1J4       0.167800
     10 C15         -8.0480     1.3600     0.2130 c6         1 1J4      -0.092400
     11 C5          -3.5330     0.0420    -1.0390 ca         1 1J4      -0.195600
     12 C4          -3.1470     0.9920    -0.0570 ca         1 1J4      -0.126000
     13 C3          -1.7830     1.2040     0.2500 ca         1 1J4       0.062100
     14 O2          -1.3820     2.1400     1.1980 os         1 1J4      -0.360100
     15 C1          -2.3140     2.9500     1.9380 c3         1 1J4       0.153900
     16 C16         -2.5130    -0.6750    -1.7090 ca         1 1J4       0.225000
     17 F17         -2.8040    -1.5950    -2.6560 f          1 1J4      -0.156000
     18 C18         -1.1630    -0.4670    -1.4040 ca         1 1J4      -0.176000
     19 C19         -0.7830     0.4540    -0.4170 ca         1 1J4       0.340000
     20 N20          0.5630     0.6920    -0.0960 nu         1 1J4      -0.913900
     21 C21          1.7560    -0.0150    -0.2050 ca         1 1J4       0.390900
     22 N22          1.7190    -1.2910    -0.6260 nb         1 1J4      -0.219000
     23 C23          2.8970    -1.9350    -0.7100 ca         1 1J4       0.152900
     24 C24          4.1210    -1.2970    -0.4220 ca         1 1J4      -0.227000
     25 N25          5.3400    -2.0720    -0.3070 n          1 1J4      -0.205400
     26 C26          5.6360    -3.0520    -1.3770 c3         1 1J4       0.091300
     27 C27          6.2430    -1.9950     0.7960 c          1 1J4       0.519000
     28 O28          7.2930    -2.6340     0.7860 o          1 1J4      -0.502000
     29 N40          2.8470     0.6700     0.1640 nb         1 1J4      -0.211000
     30 C39          4.0210     0.0210     0.0710 ca         1 1J4       0.363900
     31 N33          5.1700     0.7420     0.4440 nh         1 1J4      -0.768300
     32 C32          5.8130     0.3650     1.7260 c3         1 1J4       0.159800
     33 C29          5.8430    -1.1510     2.0410 c3         1 1J4       0.074000
     34 F30          4.6350    -1.5440     2.5180 f          1 1J4      -0.097000
     35 F31          6.7200    -1.3500     3.0580 f          1 1J4      -0.097000
     36 C34          6.0070     1.4500    -0.5780 c5         1 1J4       0.207500
     37 C35          5.1920     1.7390    -1.8670 c5         1 1J4      -0.086400
     38 C36          6.1390     2.7550    -2.5570 c5         1 1J4      -0.078400
     39 C37          6.6640     3.6420    -1.3790 c5         1 1J4      -0.078400
     40 C38          6.2160     2.9020    -0.0790 c5         1 1J4      -0.086400
     41 H1          -5.5280     0.7780     0.3370 hn         1 1J4       0.311500
     42 H2          -7.6490     0.3430    -1.6590 h1         1 1J4       0.074700
     43 H3          -7.4510    -1.9470    -0.6820 hc         1 1J4       0.052950
     44 H4          -7.5350    -1.2940     0.9520 hc         1 1J4       0.052950
     45 H5          -9.7470    -1.1680    -1.1810 h1         1 1J4       0.033950
     46 H6          -9.7400    -2.1780     0.2730 h1         1 1J4       0.033950
     47 H8         -11.8180    -1.1710     1.1200 h1         1 1J4       0.030700
     48 H9         -11.9390     0.5890     1.3250 h1         1 1J4       0.030700
     49 H10        -11.9510    -0.1180    -0.3090 h1         1 1J4       0.030700
     50 H11         -9.9230     1.3930    -0.8820 h1         1 1J4       0.033950
     51 H12        -10.0310     2.0340     0.7640 h1         1 1J4       0.033950
     52 H13         -7.7190     1.3230     1.2610 hc         1 1J4       0.052950
     53 H14         -7.7450     2.3400    -0.1790 hc         1 1J4       0.052950
     54 H15         -3.9040     1.5790     0.4520 ha         1 1J4       0.125000
     55 H16         -1.7770     3.6120     2.6280 h1         1 1J4       0.044367
     56 H17         -2.9090     3.5770     1.2610 h1         1 1J4       0.044367
     57 H18         -2.9940     2.3230     2.5290 h1         1 1J4       0.044367
     58 H19         -0.4180    -1.0230    -1.9580 ha         1 1J4       0.173000
     59 H20          0.6660     1.5390     0.4650 hn         1 1J4       0.535000
     60 H21          2.8540    -2.9840    -0.9990 h4         1 1J4       0.037100
     61 H22          6.6720    -2.9330    -1.7180 h1         1 1J4       0.051367
     62 H23          5.4940    -4.0700    -0.9940 h1         1 1J4       0.051367
     63 H24          4.9700    -2.8930    -2.2350 h1         1 1J4       0.051367
     64 H25          6.8540     0.7190     1.7310 h1         1 1J4       0.089700
     65 H26          5.3080     0.8830     2.5530 h1         1 1J4       0.089700
     66 H27          6.9520     0.9280    -0.7890 h1         1 1J4       0.039700
     67 H28          5.0270     0.8430    -2.4760 hc         1 1J4       0.054700
     68 H29          4.2160     2.1940    -1.6640 hc         1 1J4       0.054700
     69 H30          6.9690     2.2400    -3.0550 hc         1 1J4       0.045950
     70 H31          5.6230     3.3440    -3.3240 hc         1 1J4       0.045950
     71 H32          7.7550     3.7430    -1.4260 hc         1 1J4       0.045950
     72 H33          6.2510     4.6570    -1.4170 hc         1 1J4       0.045950
     73 H34          5.2860     3.3320     0.3130 hc         1 1J4       0.054700
     74 H35          6.9650     2.9710     0.7170 hc         1 1J4       0.054700
@<TRIPOS>BOND
     1     1     2 2   
     2     2     3 1   
     3     2    11 1   
     4     3     4 1   
     5     3    41 1   
     6     4     5 1   
     7     4    10 1   
     8     4    42 1   
     9     5     6 1   
    10     5    43 1   
    11     5    44 1   
    12     6     7 1   
    13     6    45 1   
    14     6    46 1   
    15     7     8 1   
    16     7     9 1   
    17     8    47 1   
    18     8    48 1   
    19     8    49 1   
    20     9    10 1   
    21     9    50 1   
    22     9    51 1   
    23    10    52 1   
    24    10    53 1   
    25    11    12 ar  
    26    11    16 ar  
    27    12    13 ar  
    28    12    54 1   
    29    13    14 1   
    30    13    19 ar  
    31    14    15 1   
    32    15    55 1   
    33    15    56 1   
    34    15    57 1   
    35    16    17 1   
    36    16    18 ar  
    37    18    19 ar  
    38    18    58 1   
    39    19    20 1   
    40    20    21 1   
    41    20    59 1   
    42    21    22 ar  
    43    21    29 ar  
    44    22    23 ar  
    45    23    24 ar  
    46    23    60 1   
    47    24    25 1   
    48    24    30 ar  
    49    25    26 1   
    50    25    27 1   
    51    26    61 1   
    52    26    62 1   
    53    26    63 1   
    54    27    28 2   
    55    27    33 1   
    56    29    30 ar  
    57    30    31 1   
    58    31    32 1   
    59    31    36 1   
    60    32    33 1   
    61    32    64 1   
    62    32    65 1   
    63    33    34 1   
    64    33    35 1   
    65    36    37 1   
    66    36    40 1   
    67    36    66 1   
    68    37    38 1   
    69    37    67 1   
    70    37    68 1   
    71    38    39 1   
    72    38    69 1   
    73    38    70 1   
    74    39    40 1   
    75    39    71 1   
    76    39    72 1   
    77    40    73 1   
    78    40    74 1   
@<TRIPOS>SUBSTRUCTURE
     1 1J4         1 TEMP              0 ****  ****    0 ROOT
