@<TRIPOS>MOLECULE
1J4
   74    78     1     0     0
SMALL
abcg2


@<TRIPOS>ATOM
      1 O7          -5.3960    -0.7520    -2.2960 o          1 1J4      -0.582100
      2 C6          -5.0530    -0.2440    -1.2380 c          1 1J4       0.624700
      3 N8          -5.9200     0.1730    -0.3000 ns         1 1J4      -0.502900
      4 C9          -7.3590     0.0710    -0.4330 c6         1 1J4       0.111700
      5 C10         -7.8900    -1.2940    -0.0020 c6         1 1J4      -0.092400
      6 C11         -9.4080    -1.3220    -0.0870 c6         1 1J4       0.167800
      7 N12         -9.9970    -0.2740     0.7250 n3         1 1J4      -0.718600
      8 C13        -11.4390    -0.3550     0.7340 c3         1 1J4       0.153100
      9 C14         -9.5490     1.0370     0.2950 c6         1 1J4       0.167800
     10 C15         -8.0360     1.1640     0.3830 c6         1 1J4      -0.092400
     11 C5          -3.6180    -0.0060    -0.9040 ca         1 1J4      -0.195600
     12 C4          -3.2040     1.2020    -0.3270 ca         1 1J4      -0.126000
     13 C3          -1.8760     1.4500    -0.0520 ca         1 1J4       0.062100
     14 O2          -1.4050     2.5920     0.4870 os         1 1J4      -0.360100
     15 C1          -2.3250     3.6010     0.8580 c3         1 1J4       0.153900
     16 C16         -2.6400    -0.9380    -1.1850 ca         1 1J4       0.225000
     17 F17         -2.9810    -2.1230    -1.7100 f          1 1J4      -0.156000
     18 C18         -1.3010    -0.7300    -0.9080 ca         1 1J4      -0.176000
     19 C19         -0.8950     0.4710    -0.3400 ca         1 1J4       0.340000
     20 N20          0.4060     0.8040    -0.0190 nu         1 1J4      -0.913900
     21 C21          1.5720     0.1140    -0.1620 ca         1 1J4       0.390900
     22 N22          1.5810    -1.0910    -0.7150 nb         1 1J4      -0.219000
     23 C23          2.7560    -1.6940    -0.8040 ca         1 1J4       0.152900
     24 C24          3.9290    -1.1090    -0.3660 ca         1 1J4      -0.227000
     25 N25          5.1760    -1.7520    -0.4910 n          1 1J4      -0.205400
     26 C26          5.6020    -2.2470    -1.7970 c3         1 1J4       0.091300
     27 C27          6.0760    -1.8060     0.5160 c          1 1J4       0.519000
     28 O28          7.1930    -2.2590     0.3840 o          1 1J4      -0.502000
     29 N40          2.6460     0.7640     0.2970 nb         1 1J4      -0.211000
     30 C39          3.8130     0.1720     0.1880 ca         1 1J4       0.363900
     31 N33          4.9410     0.8540     0.6880 nh         1 1J4      -0.768300
     32 C32          5.4700     0.2770     1.9070 c3         1 1J4       0.159800
     33 C29          5.6270    -1.2430     1.8780 c3         1 1J4       0.074000
     34 F30          4.4540    -1.8520     2.2260 f          1 1J4      -0.097000
     35 F31          6.5300    -1.6230     2.8070 f          1 1J4      -0.097000
     36 C34          5.9300     1.2940    -0.3010 c5         1 1J4       0.207500
     37 C35          5.3200     1.7430    -1.6240 c5         1 1J4      -0.086400
     38 C36          6.4800     2.4780    -2.2960 c5         1 1J4      -0.078400
     39 C37          7.2640     3.1410    -1.1410 c5         1 1J4      -0.078400
     40 C38          6.6850     2.5450     0.1540 c5         1 1J4      -0.086400
     41 H1          -5.5590     0.4390     0.6030 hn         1 1J4       0.311500
     42 H2          -7.6040     0.2240    -1.4880 h1         1 1J4       0.074700
     43 H3          -7.4710    -2.0800    -0.6340 hc         1 1J4       0.052950
     44 H4          -7.5750    -1.4960     1.0260 hc         1 1J4       0.052950
     45 H5          -9.7140    -1.2340    -1.1460 h1         1 1J4       0.033950
     46 H6          -9.7800    -2.2880     0.2640 h1         1 1J4       0.033950
     47 H8         -11.7570    -1.3410     1.0770 h1         1 1J4       0.030700
     48 H9         -11.8520     0.3870     1.4190 h1         1 1J4       0.030700
     49 H10        -11.8910    -0.1830    -0.2560 h1         1 1J4       0.030700
     50 H11         -9.8730     1.2510    -0.7400 h1         1 1J4       0.033950
     51 H12        -10.0150     1.7940     0.9300 h1         1 1J4       0.033950
     52 H13         -7.7300     1.0840     1.4320 hc         1 1J4       0.052950
     53 H14         -7.7290     2.1500     0.0280 hc         1 1J4       0.052950
     54 H15         -3.9490     1.9600    -0.1230 ha         1 1J4       0.125000
     55 H16         -1.7390     4.4090     1.2860 h1         1 1J4       0.044367
     56 H17         -2.8770     3.9810    -0.0050 h1         1 1J4       0.044367
     57 H18         -3.0370     3.2430     1.6060 h1         1 1J4       0.044367
     58 H19         -0.5830    -1.5020    -1.1310 ha         1 1J4       0.173000
     59 H20          0.5270     1.7080     0.4120 hn         1 1J4       0.535000
     60 H21          2.7610    -2.6840    -1.2480 h4         1 1J4       0.037100
     61 H22          6.4650    -1.6870    -2.1570 h1         1 1J4       0.051367
     62 H23          5.8610    -3.3020    -1.7500 h1         1 1J4       0.051367
     63 H24          4.7910    -2.1180    -2.5070 h1         1 1J4       0.051367
     64 H25          6.4470     0.7190     2.1020 h1         1 1J4       0.089700
     65 H26          4.8330     0.5270     2.7610 h1         1 1J4       0.089700
     66 H27          6.6740     0.5110    -0.5160 h1         1 1J4       0.039700
     67 H28          4.9320     0.9260    -2.2340 hc         1 1J4       0.054700
     68 H29          4.4950     2.4330    -1.4250 hc         1 1J4       0.054700
     69 H30          7.1150     1.7620    -2.8210 hc         1 1J4       0.045950
     70 H31          6.1330     3.1950    -3.0390 hc         1 1J4       0.045950
     71 H32          8.3320     2.9360    -1.2300 hc         1 1J4       0.045950
     72 H33          7.1530     4.2250    -1.1490 hc         1 1J4       0.045950
     73 H34          5.9680     3.2300     0.6140 hc         1 1J4       0.054700
     74 H35          7.4560     2.3360     0.8980 hc         1 1J4       0.054700
@<TRIPOS>BOND
     1     1     2 2   
     2     2     3 1   
     3     2    11 1   
     4     3     4 1   
     5     3    41 1   
     6     4     5 1   
     7     4    10 1   
     8     4    42 1   
     9     5     6 1   
    10     5    43 1   
    11     5    44 1   
    12     6     7 1   
    13     6    45 1   
    14     6    46 1   
    15     7     8 1   
    16     7     9 1   
    17     8    47 1   
    18     8    48 1   
    19     8    49 1   
    20     9    10 1   
    21     9    50 1   
    22     9    51 1   
    23    10    52 1   
    24    10    53 1   
    25    11    12 ar  
    26    11    16 ar  
    27    12    13 ar  
    28    12    54 1   
    29    13    14 1   
    30    13    19 ar  
    31    14    15 1   
    32    15    55 1   
    33    15    56 1   
    34    15    57 1   
    35    16    17 1   
    36    16    18 ar  
    37    18    19 ar  
    38    18    58 1   
    39    19    20 1   
    40    20    21 1   
    41    20    59 1   
    42    21    22 ar  
    43    21    29 ar  
    44    22    23 ar  
    45    23    24 ar  
    46    23    60 1   
    47    24    25 1   
    48    24    30 ar  
    49    25    26 1   
    50    25    27 1   
    51    26    61 1   
    52    26    62 1   
    53    26    63 1   
    54    27    28 2   
    55    27    33 1   
    56    29    30 ar  
    57    30    31 1   
    58    31    32 1   
    59    31    36 1   
    60    32    33 1   
    61    32    64 1   
    62    32    65 1   
    63    33    34 1   
    64    33    35 1   
    65    36    37 1   
    66    36    40 1   
    67    36    66 1   
    68    37    38 1   
    69    37    67 1   
    70    37    68 1   
    71    38    39 1   
    72    38    69 1   
    73    38    70 1   
    74    39    40 1   
    75    39    71 1   
    76    39    72 1   
    77    40    73 1   
    78    40    74 1   
@<TRIPOS>SUBSTRUCTURE
     1 1J4         1 TEMP              0 ****  ****    0 ROOT
