@<TRIPOS>MOLECULE
1J5
   42    45     1     0     0
SMALL
No Charge or Current Charge


@<TRIPOS>ATOM
      1 C1          -0.8810     3.8110    -1.2430 c3         1 1J5      -0.127100
      2 C2          -1.2590     3.2580     0.1460 c3         1 1J5       0.172000
      3 O4          -2.3760     4.0210     0.6390 oh         1 1J5      -0.646000
      4 C5          -1.5840     1.7650     0.1160 cc         1 1J5       0.357800
      5 N6          -0.6430     0.7210     0.0700 na         1 1J5      -0.158600
      6 C7          -1.3590    -0.4630     0.0640 ca         1 1J5      -0.004200
      7 C8          -2.6820    -0.0990     0.1040 ca         1 1J5      -0.015600
      8 N9          -2.8450     1.2880     0.1390 nd         1 1J5      -0.566100
      9 C10         -3.6910    -1.0940     0.1080 ca         1 1J5       0.425900
     10 N11         -3.3990    -2.4240     0.0740 nb         1 1J5      -0.690000
     11 C12         -2.0930    -2.7660     0.0360 ca         1 1J5       0.357500
     12 C13         -1.0540    -1.8440     0.0290 ca         1 1J5      -0.126800
     13 C14          0.1750    -2.5970    -0.0130 cc         1 1J5      -0.236200
     14 C15         -0.1620    -3.9380    -0.0320 cd         1 1J5      -0.166100
     15 N16         -1.5710    -4.0440    -0.0020 na         1 1J5      -0.304400
     16 C18          0.8360     0.8730     0.0340 c6         1 1J5       0.092300
     17 C20          1.5220     0.3220     1.3150 c6         1 1J5      -0.094400
     18 C21          3.0630     0.4790     1.2470 c6         1 1J5      -0.069400
     19 C22          3.6480    -0.1310    -0.0590 c6         1 1J5      -0.005600
     20 C24          2.9940     0.5240    -1.3090 c6         1 1J5      -0.069400
     21 C25          1.4530     0.3670    -1.3000 c6         1 1J5      -0.094400
     22 C26          5.1220    -0.0030    -0.0960 c1         1 1J5       0.297900
     23 N27          6.2790     0.1290    -0.1240 n1         1 1J5      -0.455000
     24 H1          -1.7080     3.6820    -1.9520 hc         1 1J5       0.047700
     25 H2          -0.6410     4.8790    -1.1810 hc         1 1J5       0.047700
     26 H3          -0.0040     3.2900    -1.6450 hc         1 1J5       0.047700
     27 H4          -0.4020     3.4030     0.8170 h1         1 1J5       0.071700
     28 H5          -3.1510     3.4130     0.5780 ho         1 1J5       0.472000
     29 H6          -4.7460    -0.8220     0.1400 h4         1 1J5       0.036100
     30 H8           1.1980    -2.2370    -0.0290 ha         1 1J5       0.200000
     31 H9           0.4860    -4.8130    -0.0640 h4         1 1J5       0.217000
     32 H10          1.0490     1.9500     0.0470 h1         1 1J5       0.064700
     33 H11          1.1440     0.8720     2.1880 hc         1 1J5       0.063700
     34 H12          1.2610    -0.7230     1.5020 hc         1 1J5       0.063700
     35 H13          3.3220     1.5460     1.3080 hc         1 1J5       0.056950
     36 H14          3.5160     0.0000     2.1260 hc         1 1J5       0.056950
     37 H15          3.4460    -1.2100    -0.0730 hc         1 1J5       0.075700
     38 H16          3.2510     1.5930    -1.3470 hc         1 1J5       0.056950
     39 H17          3.4000     0.0770    -2.2280 hc         1 1J5       0.056950
     40 H18          1.1820    -0.6720    -1.5080 hc         1 1J5       0.063700
     41 H19          1.0290     0.9430    -2.1340 hc         1 1J5       0.063700
     42 H7          -2.1200    -4.8960    -0.0060 hn         1 1J5       0.363000
@<TRIPOS>BOND
     1     1     2 1   
     2     1    24 1   
     3     1    25 1   
     4     1    26 1   
     5     2     3 1   
     6     2     4 1   
     7     2    27 1   
     8     3    28 1   
     9     4     5 1   
    10     4     8 2   
    11     5     6 1   
    12     5    16 1   
    13     6     7 ar  
    14     6    12 ar  
    15     7     8 1   
    16     7     9 ar  
    17     9    10 ar  
    18     9    29 1   
    19    10    11 ar  
    20    11    12 ar  
    21    11    15 1   
    22    12    13 1   
    23    13    14 2   
    24    13    30 1   
    25    14    15 1   
    26    14    31 1   
    27    15    42 1   
    28    16    17 1   
    29    16    21 1   
    30    16    32 1   
    31    17    18 1   
    32    17    33 1   
    33    17    34 1   
    34    18    19 1   
    35    18    35 1   
    36    18    36 1   
    37    19    20 1   
    38    19    22 1   
    39    19    37 1   
    40    20    21 1   
    41    20    38 1   
    42    20    39 1   
    43    21    40 1   
    44    21    41 1   
    45    22    23 3   
@<TRIPOS>SUBSTRUCTURE
     1 1J5         1 TEMP              0 ****  ****    0 ROOT
