@<TRIPOS>MOLECULE
1J5
   42    45     1     0     0
SMALL
bcc


@<TRIPOS>ATOM
      1 C1          -0.8470     3.6290    -1.2600 c3         1 1J5      -0.127100
      2 C2          -1.1820     3.1720     0.1580 c3         1 1J5       0.148800
      3 O4          -2.2480     3.8990     0.7080 oh         1 1J5      -0.583800
      4 C5          -1.5100     1.7020     0.1720 cc         1 1J5       0.357800
      5 N6          -0.5840     0.6920     0.0930 na         1 1J5      -0.129300
      6 C7          -1.2950    -0.4830     0.0770 ca         1 1J5      -0.004200
      7 C8          -2.6400    -0.0950     0.1440 ca         1 1J5      -0.080900
      8 N9          -2.7340     1.2730     0.2020 nd         1 1J5      -0.566100
      9 C10         -3.6660    -1.0470     0.1460 ca         1 1J5       0.491200
     10 N11         -3.4150    -2.3370     0.0880 nb         1 1J5      -0.690000
     11 C12         -2.1300    -2.6870     0.0280 ca         1 1J5       0.422800
     12 C13         -0.9860    -1.8520     0.0180 ca         1 1J5      -0.192100
     13 C14          0.1470    -2.7180    -0.0530 cc         1 1J5      -0.186200
     14 C15         -0.3360    -3.9970    -0.0830 cd         1 1J5      -0.116100
     15 N16         -1.6950    -3.9770    -0.0350 na         1 1J5      -0.254100
     16 C18          0.8610     0.8760     0.0570 c6         1 1J5       0.063000
     17 C20          1.5400     0.2880     1.2890 c6         1 1J5      -0.094400
     18 C21          3.0420     0.5460     1.2490 c6         1 1J5      -0.069400
     19 C22          3.6450     0.0090    -0.0550 c6         1 1J5      -0.005600
     20 C24          2.9670     0.6320    -1.2820 c6         1 1J5      -0.069400
     21 C25          1.4660     0.3710    -1.2500 c6         1 1J5      -0.094400
     22 C26          5.0820     0.2480    -0.0900 c1         1 1J5       0.208700
     23 N27          6.2150     0.4500    -0.1160 n1         1 1J5      -0.365800
     24 H1          -1.6920     3.4630    -1.9290 hc         1 1J5       0.047700
     25 H2          -0.6000     4.6900    -1.2650 hc         1 1J5       0.047700
     26 H3           0.0090     3.0880    -1.6660 hc         1 1J5       0.047700
     27 H4          -0.3200     3.3600     0.8050 h1         1 1J5       0.071700
     28 H5          -3.0710     3.5180     0.3770 ho         1 1J5       0.433000
     29 H6          -4.7040    -0.7340     0.1970 h4         1 1J5       0.036100
     30 H8           1.1910    -2.4590    -0.0780 ha         1 1J5       0.150000
     31 H9           0.2010    -4.9290    -0.1370 h4         1 1J5       0.167000
     32 H10          1.0260     1.9560     0.0890 h1         1 1J5       0.064700
     33 H11          1.1150     0.7400     2.1870 hc         1 1J5       0.063700
     34 H12          1.3560    -0.7860     1.3620 hc         1 1J5       0.063700
     35 H13          3.2390     1.6190     1.3230 hc         1 1J5       0.056950
     36 H14          3.5200     0.0720     2.1070 hc         1 1J5       0.056950
     37 H15          3.5110    -1.0790    -0.0880 hc         1 1J5       0.075700
     38 H16          3.1600     1.7080    -1.2950 hc         1 1J5       0.056950
     39 H17          3.3920     0.2180    -2.1970 hc         1 1J5       0.056950
     40 H18          1.2770    -0.6960    -1.3790 hc         1 1J5       0.063700
     41 H19          0.9890     0.8740    -2.0940 hc         1 1J5       0.063700
     42 H7          -2.2940    -4.7860    -0.0440 hn         1 1J5       0.312700
@<TRIPOS>BOND
     1     1     2 1   
     2     1    24 1   
     3     1    25 1   
     4     1    26 1   
     5     2     3 1   
     6     2     4 1   
     7     2    27 1   
     8     3    28 1   
     9     4     5 1   
    10     4     8 2   
    11     5     6 1   
    12     5    16 1   
    13     6     7 ar  
    14     6    12 ar  
    15     7     8 1   
    16     7     9 ar  
    17     9    10 ar  
    18     9    29 1   
    19    10    11 ar  
    20    11    12 ar  
    21    11    15 1   
    22    12    13 1   
    23    13    14 2   
    24    13    30 1   
    25    14    15 1   
    26    14    31 1   
    27    15    42 1   
    28    16    17 1   
    29    16    21 1   
    30    16    32 1   
    31    17    18 1   
    32    17    33 1   
    33    17    34 1   
    34    18    19 1   
    35    18    35 1   
    36    18    36 1   
    37    19    20 1   
    38    19    22 1   
    39    19    37 1   
    40    20    21 1   
    41    20    38 1   
    42    20    39 1   
    43    21    40 1   
    44    21    41 1   
    45    22    23 3   
@<TRIPOS>SUBSTRUCTURE
     1 1J5         1 TEMP              0 ****  ****    0 ROOT
