@<TRIPOS>MOLECULE
1J6
   45    48     1     0     0
SMALL
No Charge or Current Charge


@<TRIPOS>ATOM
      1 C1           1.6320    -3.6720    -1.2860 c3         1 1J6      -0.126100
      2 C2           2.0580    -3.0660     0.0670 c3         1 1J6       0.173000
      3 O4           3.3270    -3.6410     0.4320 oh         1 1J6      -0.650000
      4 C5           2.1360    -1.5410     0.0290 cc         1 1J6       0.355800
      5 N6           1.0430    -0.6610     0.0930 na         1 1J6      -0.154600
      6 C7           1.5570     0.6230     0.0360 ca         1 1J6      -0.005200
      7 C8           2.9190     0.4740    -0.0590 ca         1 1J6      -0.014600
      8 N9           3.3020    -0.8690    -0.0630 nd         1 1J6      -0.571100
      9 C10          3.7520     1.6180    -0.1370 ca         1 1J6       0.423900
     10 N11          3.2510     2.8840    -0.1220 nb         1 1J6      -0.690000
     11 C12          1.9090     3.0140    -0.0270 ca         1 1J6       0.356500
     12 C13          1.0350     1.9370     0.0530 ca         1 1J6      -0.125800
     13 C14         -0.2970     2.4830     0.1420 cc         1 1J6      -0.235200
     14 C15         -0.1810     3.8610     0.1120 cd         1 1J6      -0.168100
     15 N16          1.1890     4.1920     0.0070 na         1 1J6      -0.304400
     16 C18         -0.3900    -1.0470     0.2010 c6         1 1J6       0.092300
     17 C20         -1.0230    -0.6110     1.5500 c6         1 1J6      -0.092900
     18 C21         -2.5170    -1.0120     1.6310 c6         1 1J6      -0.073400
     19 C22         -3.3260    -0.5000     0.4060 c6         1 1J6      -0.059700
     20 C24         -2.7000    -1.0470    -0.9120 c6         1 1J6      -0.073400
     21 C25         -1.2100    -0.6470    -1.0550 c6         1 1J6      -0.092900
     22 C26         -4.8360    -0.8760     0.5470 c3         1 1J6      -0.016300
     23 C27         -5.7120    -0.2640    -0.4630 c1         1 1J6       0.296900
     24 N28         -6.4230     0.2300    -1.2430 n1         1 1J6      -0.460000
     25 H1           2.3510    -3.4130    -2.0720 hc         1 1J6       0.047367
     26 H2           1.5730    -4.7650    -1.2180 hc         1 1J6       0.047367
     27 H3           0.6470    -3.2990    -1.5880 hc         1 1J6       0.047367
     28 H4           1.3080    -3.3470     0.8190 h1         1 1J6       0.069700
     29 H5           3.9820    -2.9120     0.3100 ho         1 1J6       0.476000
     30 H6           4.8340     1.5180    -0.2130 h4         1 1J6       0.036100
     31 H8          -1.2460     1.9650     0.2200 ha         1 1J6       0.202000
     32 H9          -0.9600     4.6220     0.1570 h4         1 1J6       0.217000
     33 H10         -0.4270    -2.1440     0.2200 h1         1 1J6       0.062700
     34 H11         -0.4780    -1.0930     2.3740 hc         1 1J6       0.061700
     35 H12         -0.9140     0.4620     1.7270 hc         1 1J6       0.061700
     36 H13         -2.5980    -2.1070     1.6960 hc         1 1J6       0.048700
     37 H14         -2.9470    -0.6150     2.5610 hc         1 1J6       0.048700
     38 H15         -3.2770     0.5990     0.3950 hc         1 1J6       0.060700
     39 H16         -2.7870    -2.1420    -0.9370 hc         1 1J6       0.048700
     40 H17         -3.2520    -0.6750    -1.7860 hc         1 1J6       0.048700
     41 H18         -1.1300     0.4210    -1.2740 hc         1 1J6       0.061700
     42 H19         -0.7880    -1.1510    -1.9360 hc         1 1J6       0.061700
     43 H20         -4.9640    -1.9640     0.4980 hc         1 1J6       0.071700
     44 H21         -5.2090    -0.5670     1.5300 hc         1 1J6       0.071700
     45 H7           1.5920     5.1200    -0.0370 hn         1 1J6       0.362000
@<TRIPOS>BOND
     1     1     2 1   
     2     1    25 1   
     3     1    26 1   
     4     1    27 1   
     5     2     3 1   
     6     2     4 1   
     7     2    28 1   
     8     3    29 1   
     9     4     5 1   
    10     4     8 2   
    11     5     6 1   
    12     5    16 1   
    13     6     7 ar  
    14     6    12 ar  
    15     7     8 1   
    16     7     9 ar  
    17     9    10 ar  
    18     9    30 1   
    19    10    11 ar  
    20    11    12 ar  
    21    11    15 1   
    22    12    13 1   
    23    13    14 2   
    24    13    31 1   
    25    14    15 1   
    26    14    32 1   
    27    15    45 1   
    28    16    17 1   
    29    16    21 1   
    30    16    33 1   
    31    17    18 1   
    32    17    34 1   
    33    17    35 1   
    34    18    19 1   
    35    18    36 1   
    36    18    37 1   
    37    19    20 1   
    38    19    22 1   
    39    19    38 1   
    40    20    21 1   
    41    20    39 1   
    42    20    40 1   
    43    21    41 1   
    44    21    42 1   
    45    22    23 1   
    46    22    43 1   
    47    22    44 1   
    48    23    24 3   
@<TRIPOS>SUBSTRUCTURE
     1 1J6         1 TEMP              0 ****  ****    0 ROOT
