@<TRIPOS>MOLECULE
1J6
   45    48     1     0     0
SMALL
bcc


@<TRIPOS>ATOM
      1 C1           1.5680    -3.4930    -1.3270 c3         1 1J6      -0.126100
      2 C2           1.9770    -3.0080     0.0650 c3         1 1J6       0.149800
      3 O4           3.2110    -3.5450     0.4620 oh         1 1J6      -0.587800
      4 C5           2.0540    -1.5050     0.0910 cc         1 1J6       0.355800
      5 N6           0.9770    -0.6620     0.1300 na         1 1J6      -0.125300
      6 C7           1.4810     0.6140     0.0640 ca         1 1J6      -0.005200
      7 C8           2.8710     0.4510    -0.0140 ca         1 1J6      -0.079900
      8 N9           3.1910    -0.8830     0.0060 nd         1 1J6      -0.571100
      9 C10          3.7240     1.5580    -0.0990 ca         1 1J6       0.489200
     10 N11          3.2630     2.7910    -0.1110 nb         1 1J6      -0.690000
     11 C12          1.9380     2.9260    -0.0340 ca         1 1J6       0.421800
     12 C13          0.9510     1.9150     0.0600 ca         1 1J6      -0.191100
     13 C14         -0.3090     2.5830     0.1190 cc         1 1J6      -0.185200
     14 C15         -0.0470     3.9240     0.0590 cd         1 1J6      -0.118100
     15 N16          1.2950     4.1270    -0.0320 na         1 1J6      -0.254100
     16 C18         -0.4180    -1.0740     0.2380 c6         1 1J6       0.063000
     17 C20         -1.0440    -0.5970     1.5450 c6         1 1J6      -0.092900
     18 C21         -2.5070    -1.0150     1.6310 c6         1 1J6      -0.073400
     19 C22         -3.2990    -0.5410     0.4160 c6         1 1J6      -0.059700
     20 C24         -2.6770    -1.0890    -0.8660 c6         1 1J6      -0.073400
     21 C25         -1.2180    -0.6690    -0.9980 c6         1 1J6      -0.092900
     22 C26         -4.7660    -0.9590     0.5690 c3         1 1J6      -0.016300
     23 C27         -5.6080    -0.4620    -0.5080 c1         1 1J6       0.207700
     24 N28         -6.2660    -0.0610    -1.3630 n1         1 1J6      -0.370800
     25 H1           2.2900    -3.1640    -2.0760 hc         1 1J6       0.047367
     26 H2           1.5190    -4.5810    -1.3450 hc         1 1J6       0.047367
     27 H3           0.5870    -3.1120    -1.6160 hc         1 1J6       0.047367
     28 H4           1.2350    -3.3530     0.7920 h1         1 1J6       0.069700
     29 H5           3.9060    -2.9630     0.1290 ho         1 1J6       0.437000
     30 H6           4.7990     1.4200    -0.1600 h4         1 1J6       0.036100
     31 H8          -1.2940     2.1550     0.1970 ha         1 1J6       0.152000
     32 H9          -0.7320     4.7550     0.0760 h4         1 1J6       0.167000
     33 H10         -0.4120    -2.1660     0.2690 h1         1 1J6       0.062700
     34 H11         -0.4860    -1.0180     2.3840 hc         1 1J6       0.061700
     35 H12         -0.9710     0.4880     1.6360 hc         1 1J6       0.061700
     36 H13         -2.5780    -2.1070     1.7050 hc         1 1J6       0.048700
     37 H14         -2.9440    -0.6120     2.5470 hc         1 1J6       0.048700
     38 H15         -3.2590     0.5540     0.3820 hc         1 1J6       0.060700
     39 H16         -2.7520    -2.1830    -0.8640 hc         1 1J6       0.048700
     40 H17         -3.2250    -0.7400    -1.7440 hc         1 1J6       0.048700
     41 H18         -1.1650     0.4100    -1.1540 hc         1 1J6       0.061700
     42 H19         -0.7720    -1.1310    -1.8820 hc         1 1J6       0.061700
     43 H20         -4.8560    -2.0480     0.5940 hc         1 1J6       0.071700
     44 H21         -5.1760    -0.5830     1.5090 hc         1 1J6       0.071700
     45 H7           1.7480     5.0240    -0.0960 hn         1 1J6       0.311700
@<TRIPOS>BOND
     1     1     2 1   
     2     1    25 1   
     3     1    26 1   
     4     1    27 1   
     5     2     3 1   
     6     2     4 1   
     7     2    28 1   
     8     3    29 1   
     9     4     5 1   
    10     4     8 2   
    11     5     6 1   
    12     5    16 1   
    13     6     7 ar  
    14     6    12 ar  
    15     7     8 1   
    16     7     9 ar  
    17     9    10 ar  
    18     9    30 1   
    19    10    11 ar  
    20    11    12 ar  
    21    11    15 1   
    22    12    13 1   
    23    13    14 2   
    24    13    31 1   
    25    14    15 1   
    26    14    32 1   
    27    15    45 1   
    28    16    17 1   
    29    16    21 1   
    30    16    33 1   
    31    17    18 1   
    32    17    34 1   
    33    17    35 1   
    34    18    19 1   
    35    18    36 1   
    36    18    37 1   
    37    19    20 1   
    38    19    22 1   
    39    19    38 1   
    40    20    21 1   
    41    20    39 1   
    42    20    40 1   
    43    21    41 1   
    44    21    42 1   
    45    22    23 1   
    46    22    43 1   
    47    22    44 1   
    48    23    24 3   
@<TRIPOS>SUBSTRUCTURE
     1 1J6         1 TEMP              0 ****  ****    0 ROOT
