@<TRIPOS>MOLECULE
1J9
   51    54     1     0     0
SMALL
No Charge or Current Charge


@<TRIPOS>ATOM
      1 C1           7.8330    -1.0380     0.2630 ca         1 1J9      -0.106000
      2 C2           8.5250    -0.0040    -0.3900 ca         1 1J9      -0.091000
      3 C3           7.8230     1.1160    -0.8670 ca         1 1J9      -0.103000
      4 C4           6.4300     1.2050    -0.6950 ca         1 1J9       0.135000
      5 C5           5.7310     0.1660    -0.0410 ca         1 1J9       0.025800
      6 C6           6.4400    -0.9530     0.4370 ca         1 1J9      -0.076000
      7 N1           4.3500     0.2280     0.1350 na         1 1J9       0.064100
      8 C7           3.4450    -0.0180    -0.8820 ca         1 1J9       0.155500
      9 C8           2.2280     0.1290    -0.2910 ca         1 1J9      -0.340900
     10 C9           2.4560     0.4590     1.0870 cc         1 1J9       0.413800
     11 N2           3.7670     0.5180     1.3670 nd         1 1J9      -0.497100
     12 C10          1.0560    -0.0500    -1.0150 ca         1 1J9       0.429300
     13 N3           1.1420    -0.3600    -2.3300 nb         1 1J9      -0.327000
     14 C11          2.3910    -0.4900    -2.8470 ca         1 1J9       0.189900
     15 N4           3.5640    -0.3360    -2.1850 nb         1 1J9      -0.195000
     16 O1          -0.1520     0.1260    -0.3790 os         1 1J9      -0.402300
     17 C12         -1.4130    -0.2760    -0.9910 c3         1 1J9       0.089300
     18 C13         -1.5020    -1.8260    -1.0000 c3         1 1J9       0.141600
     19 O2          -1.6100    -2.2990     0.3550 os         1 1J9      -0.427000
     20 C14         -1.6760    -3.7330     0.4860 c3         1 1J9       0.158600
     21 C15         -1.8000    -4.1030     1.9880 c3         1 1J9       0.165600
     22 O3          -3.0740    -3.7040     2.5300 oh         1 1J9      -0.705000
     23 C16         -2.6320     0.3470    -0.2630 c          1 1J9       0.625100
     24 O4          -2.5310     0.9650     0.7930 o          1 1J9      -0.483100
     25 N5          -3.8230     0.2170    -0.9560 ns         1 1J9      -0.332900
     26 C17         -5.1220     0.6240    -0.6250 ca         1 1J9       0.495900
     27 C18         -6.0660     0.8820    -1.6320 ca         1 1J9      -0.210000
     28 C19         -7.3800     1.2300    -1.2700 ca         1 1J9      -0.038000
     29 C20         -7.6940     1.2860     0.0970 ca         1 1J9       0.022000
     30 C21         -6.6880     0.9860     1.0380 ca         1 1J9       0.389900
     31 N6          -5.4210     0.6490     0.6890 nb         1 1J9      -0.664000
     32 Cl1         -9.3240     1.7130     0.6170 cl         1 1J9      -0.184000
     33 Cl2          5.5900     2.6340    -1.3050 cl         1 1J9      -0.171000
     34 H1           8.3750    -1.9060     0.6340 ha         1 1J9       0.124000
     35 H2           9.6020    -0.0700    -0.5240 ha         1 1J9       0.121000
     36 H3           8.3580     1.9180    -1.3700 ha         1 1J9       0.134000
     37 H4           5.9090    -1.7570     0.9430 ha         1 1J9       0.131000
     38 H5           1.7610     0.6530     1.8940 h4         1 1J9       0.070800
     39 H6           2.4580    -0.7440    -3.9040 h5         1 1J9       0.050100
     40 H7          -1.4640     0.0830    -2.0260 h1         1 1J9       0.085700
     41 H8          -2.3810    -2.1340    -1.5820 h1         1 1J9       0.037200
     42 H9          -0.6160    -2.2510    -1.4890 h1         1 1J9       0.037200
     43 H10         -2.5350    -4.1390    -0.0640 h1         1 1J9       0.028700
     44 H11         -0.7650    -4.1930     0.0810 h1         1 1J9       0.028700
     45 H12         -1.6750    -5.1900     2.0880 h1         1 1J9       0.026700
     46 H13         -0.9790    -3.6260     2.5400 h1         1 1J9       0.026700
     47 H14         -3.0530    -3.9130     3.4930 ho         1 1J9       0.503000
     48 H15         -3.7550    -0.2440    -1.8530 hn         1 1J9       0.151000
     49 H16         -5.7820     0.8180    -2.6790 ha         1 1J9       0.123000
     50 H17         -8.1320     1.4460    -2.0250 ha         1 1J9       0.133000
     51 H18         -6.9050     1.0110     2.1050 h4         1 1J9       0.039100
@<TRIPOS>BOND
     1     1     2 ar  
     2     1     6 ar  
     3     1    34 1   
     4     2     3 ar  
     5     2    35 1   
     6     3     4 ar  
     7     3    36 1   
     8     4     5 ar  
     9     4    33 1   
    10     5     6 ar  
    11     5     7 1   
    12     6    37 1   
    13     7     8 1   
    14     7    11 1   
    15     8     9 ar  
    16     8    15 ar  
    17     9    10 1   
    18     9    12 ar  
    19    10    11 2   
    20    10    38 1   
    21    12    13 ar  
    22    12    16 1   
    23    13    14 ar  
    24    14    15 ar  
    25    14    39 1   
    26    16    17 1   
    27    17    18 1   
    28    17    23 1   
    29    17    40 1   
    30    18    19 1   
    31    18    41 1   
    32    18    42 1   
    33    19    20 1   
    34    20    21 1   
    35    20    43 1   
    36    20    44 1   
    37    21    22 1   
    38    21    45 1   
    39    21    46 1   
    40    22    47 1   
    41    23    24 2   
    42    23    25 1   
    43    25    26 1   
    44    25    48 1   
    45    26    27 ar  
    46    26    31 ar  
    47    27    28 ar  
    48    27    49 1   
    49    28    29 ar  
    50    28    50 1   
    51    29    30 ar  
    52    29    32 1   
    53    30    31 ar  
    54    30    51 1   
@<TRIPOS>SUBSTRUCTURE
     1 1J9         1 TEMP              0 ****  ****    0 ROOT
