@<TRIPOS>MOLECULE
1J9
   51    54     1     0     0
SMALL
bcc


@<TRIPOS>ATOM
      1 C1           7.8570    -0.7760    -0.4520 ca         1 1J9      -0.124000
      2 C2           8.4630     0.4560    -0.6520 ca         1 1J9      -0.109000
      3 C3           7.7170     1.6250    -0.6040 ca         1 1J9      -0.121000
      4 C4           6.3560     1.5540    -0.3540 ca         1 1J9       0.043400
      5 C5           5.7440     0.3230    -0.1370 ca         1 1J9       0.025800
      6 C6           6.4970    -0.8400    -0.1900 ca         1 1J9      -0.094000
      7 N1           4.3590     0.2540     0.1160 na         1 1J9       0.064100
      8 C7           3.3890    -0.1230    -0.7450 ca         1 1J9       0.483800
      9 C8           2.1840     0.0050    -0.0540 ca         1 1J9      -0.471500
     10 C9           2.5490     0.4810     1.2290 cc         1 1J9       0.413800
     11 N2           3.8440     0.6240     1.3080 nd         1 1J9      -0.497100
     12 C10          1.0440    -0.3460    -0.7880 ca         1 1J9       0.757600
     13 N3           1.1590    -0.7550    -2.0310 nb         1 1J9      -0.853000
     14 C11          2.3840    -0.8260    -2.5720 ca         1 1J9       0.715900
     15 N4           3.5320    -0.5340    -2.0040 nb         1 1J9      -0.721000
     16 O1          -0.1320    -0.2480    -0.1990 os         1 1J9      -0.379100
     17 C12         -1.3020    -0.5940    -0.9220 c3         1 1J9       0.066100
     18 C13         -1.5520    -2.0920    -0.8880 c3         1 1J9       0.118400
     19 O2          -1.8350    -2.4600     0.4290 os         1 1J9      -0.380600
     20 C14         -2.0600    -3.8430     0.5720 c3         1 1J9       0.135400
     21 C15         -2.3290    -4.1710     2.0180 c3         1 1J9       0.142400
     22 O3          -3.5450    -3.5840     2.4170 oh         1 1J9      -0.582800
     23 C16         -2.4440     0.1630    -0.2400 c          1 1J9       0.692100
     24 O4          -2.3080     0.7500     0.8040 o          1 1J9      -0.483100
     25 N5          -3.5990     0.0860    -0.9620 ns         1 1J9      -0.566400
     26 C17         -4.8550     0.5850    -0.6330 ca         1 1J9       0.561200
     27 C18         -5.7860     0.7470    -1.6630 ca         1 1J9      -0.293300
     28 C19         -7.0430     1.2150    -1.3480 ca         1 1J9      -0.056000
     29 C20         -7.3230     1.5110    -0.0210 ca         1 1J9      -0.134900
     30 C21         -6.3370     1.3190     0.9300 ca         1 1J9       0.455200
     31 N6          -5.1310     0.8590     0.6280 nb         1 1J9      -0.664000
     32 CL1         -8.8740     2.1060     0.4460 cl         1 1J9      -0.092400
     33 CL2          5.4110     2.9950    -0.3270 cl         1 1J9      -0.079400
     34 H1           8.4410    -1.6850    -0.4940 ha         1 1J9       0.142000
     35 H2           9.5240     0.5140    -0.8500 ha         1 1J9       0.139000
     36 H3           8.1880     2.5840    -0.7700 ha         1 1J9       0.152000
     37 H4           6.0120    -1.7920    -0.0170 ha         1 1J9       0.149000
     38 H5           1.9170     0.7130     2.0720 h4         1 1J9       0.070800
     39 H6           2.4210    -1.1660    -3.6000 h5         1 1J9       0.050100
     40 H7          -1.2160    -0.2760    -1.9660 h1         1 1J9       0.085700
     41 H8          -2.3830    -2.3270    -1.5670 h1         1 1J9       0.037200
     42 H9          -0.6740    -2.6210    -1.2810 h1         1 1J9       0.037200
     43 H10         -2.9040    -4.1680    -0.0530 h1         1 1J9       0.028700
     44 H11         -1.1820    -4.4160     0.2450 h1         1 1J9       0.028700
     45 H12         -2.3530    -5.2650     2.1040 h1         1 1J9       0.026700
     46 H13         -1.4860    -3.8230     2.6290 h1         1 1J9       0.026700
     47 H14         -3.6860    -3.7940     3.3450 ho         1 1J9       0.404000
     48 H15         -3.5260    -0.2970    -1.8930 hn         1 1J9       0.317500
     49 H16         -5.5290     0.5180    -2.6890 ha         1 1J9       0.141000
     50 H17         -7.7870     1.3530    -2.1200 ha         1 1J9       0.151000
     51 H18         -6.5290     1.5370     1.9750 h4         1 1J9       0.039100
@<TRIPOS>BOND
     1     1     2 ar  
     2     1     6 ar  
     3     1    34 1   
     4     2     3 ar  
     5     2    35 1   
     6     3     4 ar  
     7     3    36 1   
     8     4     5 ar  
     9     4    33 1   
    10     5     6 ar  
    11     5     7 1   
    12     6    37 1   
    13     7     8 1   
    14     7    11 1   
    15     8     9 ar  
    16     8    15 ar  
    17     9    10 1   
    18     9    12 ar  
    19    10    11 2   
    20    10    38 1   
    21    12    13 ar  
    22    12    16 1   
    23    13    14 ar  
    24    14    15 ar  
    25    14    39 1   
    26    16    17 1   
    27    17    18 1   
    28    17    23 1   
    29    17    40 1   
    30    18    19 1   
    31    18    41 1   
    32    18    42 1   
    33    19    20 1   
    34    20    21 1   
    35    20    43 1   
    36    20    44 1   
    37    21    22 1   
    38    21    45 1   
    39    21    46 1   
    40    22    47 1   
    41    23    24 2   
    42    23    25 1   
    43    25    26 1   
    44    25    48 1   
    45    26    27 ar  
    46    26    31 ar  
    47    27    28 ar  
    48    27    49 1   
    49    28    29 ar  
    50    28    50 1   
    51    29    30 ar  
    52    29    32 1   
    53    30    31 ar  
    54    30    51 1   
@<TRIPOS>SUBSTRUCTURE
     1 1J9         1 TEMP              0 ****  ****    0 ROOT
