@<TRIPOS>MOLECULE
1JA
   21    21     1     0     0
SMALL
No Charge or Current Charge


@<TRIPOS>ATOM
      1 C01        -25.6610    -4.6020    13.4370 c3         1 1JA      -0.130700
      2 C02        -26.5280    -5.4850    14.3220 ca         1 1JA       0.348300
      3 C03        -27.8210    -5.0770    14.7010 ca         1 1JA      -0.118000
      4 C04        -28.6120    -5.9080    15.5280 ca         1 1JA      -0.101900
      5 C05        -25.0090    -3.4380    14.2120 c3         1 1JA      -0.091100
      6 C06        -28.0300    -7.1310    15.9330 ca         1 1JA      -0.144000
      7 C07        -26.7310    -7.4620    15.5090 ca         1 1JA       0.338900
      8 C08        -29.9960    -5.4990    15.9500 ce         1 1JA       0.547800
      9 N01        -25.9860    -6.6580    14.7180 nb         1 1JA      -0.668000
     10 N02        -30.5140    -4.3790    15.5800 n2         1 1JA      -0.744100
     11 S01        -30.9570    -6.5770    17.0230 sh         1 1JA      -0.378000
     12 H012       -26.2680    -4.1890    12.6220 hc         1 1JA       0.062200
     13 H011       -24.8720    -5.1950    12.9570 hc         1 1JA       0.062200
     14 H031       -28.1970    -4.1200    14.3490 ha         1 1JA       0.142000
     15 H052       -24.3930    -2.8270    13.5420 hc         1 1JA       0.038033
     16 H051       -25.7740    -2.7920    14.6600 hc         1 1JA       0.038033
     17 H053       -24.3670    -3.8200    15.0150 hc         1 1JA       0.038033
     18 H061       -28.5610    -7.8340    16.5680 ha         1 1JA       0.137000
     19 H071       -26.2720    -8.4010    15.8150 h4         1 1JA       0.023100
     20 H1         -31.3940    -4.2220    16.0860 hn         1 1JA       0.391400
     21 H013       -32.1630    -5.9940    16.8400 hs         1 1JA       0.207800
@<TRIPOS>BOND
     1     1     2 1   
     2     1     5 1   
     3     1    12 1   
     4     1    13 1   
     5     2     3 ar  
     6     2     9 ar  
     7     3     4 ar  
     8     3    14 1   
     9     4     6 ar  
    10     4     8 1   
    11     5    15 1   
    12     5    16 1   
    13     5    17 1   
    14     6     7 ar  
    15     6    18 1   
    16     7     9 ar  
    17     7    19 1   
    18     8    10 2   
    19     8    11 1   
    20    10    20 1   
    21    11    21 1   
@<TRIPOS>SUBSTRUCTURE
     1 1JA         1 TEMP              0 ****  ****    0 ROOT
