@<TRIPOS>MOLECULE
1JA
   21    21     1     0     0
SMALL
abcg2


@<TRIPOS>ATOM
      1 C01        -25.2940    -4.7070    13.9320 c3         1 1JA      -0.130700
      2 C02        -26.3790    -5.5880    14.5000 ca         1 1JA       0.348300
      3 C03        -27.5740    -5.0840    15.0020 ca         1 1JA      -0.118000
      4 C04        -28.5320    -5.9560    15.5200 ca         1 1JA      -0.101900
      5 C05        -25.5870    -3.2120    13.9000 c3         1 1JA      -0.091100
      6 C06        -28.2520    -7.3190    15.5140 ca         1 1JA      -0.144000
      7 C07        -27.0350    -7.7370    14.9890 ca         1 1JA       0.338900
      8 C08        -29.8090    -5.4030    16.0540 ce         1 1JA       0.547800
      9 N01        -26.1190    -6.9070    14.4970 nb         1 1JA      -0.668000
     10 N02        -30.2460    -4.2890    15.6320 n2         1 1JA      -0.744100
     11 S01        -30.5660    -6.4340    17.3060 sh         1 1JA      -0.378000
     12 H012       -25.0790    -5.0670    12.9210 hc         1 1JA       0.062200
     13 H011       -24.3840    -4.8960    14.5090 hc         1 1JA       0.062200
     14 H031       -27.7710    -4.0240    15.0040 ha         1 1JA       0.142000
     15 H052       -24.7410    -2.6760    13.4680 hc         1 1JA       0.038033
     16 H051       -26.4690    -2.9890    13.2960 hc         1 1JA       0.038033
     17 H053       -25.7570    -2.8150    14.9030 hc         1 1JA       0.038033
     18 H061       -28.9560    -8.0500    15.8850 ha         1 1JA       0.137000
     19 H071       -26.7940    -8.7950    14.9650 h4         1 1JA       0.023100
     20 H1         -31.1110    -4.0010    16.0840 hn         1 1JA       0.391400
     21 H013       -31.6500    -5.6610    17.4850 hs         1 1JA       0.207800
@<TRIPOS>BOND
     1     1     2 1   
     2     1     5 1   
     3     1    12 1   
     4     1    13 1   
     5     2     3 ar  
     6     2     9 ar  
     7     3     4 ar  
     8     3    14 1   
     9     4     6 ar  
    10     4     8 1   
    11     5    15 1   
    12     5    16 1   
    13     5    17 1   
    14     6     7 ar  
    15     6    18 1   
    16     7     9 ar  
    17     7    19 1   
    18     8    10 2   
    19     8    11 1   
    20    10    20 1   
    21    11    21 1   
@<TRIPOS>SUBSTRUCTURE
     1 1JA         1 TEMP              0 ****  ****    0 ROOT
