@<TRIPOS>MOLECULE
1JB
   59    61     1     0     0
SMALL
No Charge or Current Charge


@<TRIPOS>ATOM
      1 N1          -3.7740     1.1470     1.1290 n          1 1JB      -0.312000
      2 N3          -3.9390     2.9500    -0.3700 ns         1 1JB      -0.467500
      3 C4          -4.3370     3.8600     0.5550 c          1 1JB       0.597200
      4 C5          -4.4550     3.3180     1.9270 cc         1 1JB      -0.298400
      5 C6          -4.1730     1.9900     2.1670 cd         1 1JB       0.023600
      6 O1B          3.9530    -3.2050    -1.4510 o          1 1JB      -0.847000
      7 PB           3.5170    -2.3080    -0.3410 p5         1 1JB       1.462800
      8 O2B          4.2140    -2.5980     0.9440 o          1 1JB      -0.847000
      9 O3B          3.7920    -0.7880    -0.7880 os         1 1JB      -0.584400
     10 C1Q          3.9740     0.2290     0.2050 c6         1 1JB       0.420300
     11 O5Q          4.8610     1.2280    -0.3550 os         1 1JB      -0.476000
     12 C5Q          4.3220     1.9490    -1.4910 c6         1 1JB       0.138300
     13 C6Q          5.4750     2.8190    -2.0600 c3         1 1JB      -0.083100
     14 C4Q          3.0770     2.7760    -1.0400 c6         1 1JB       0.143300
     15 O4Q          3.4600     3.7620    -0.0490 oh         1 1JB      -0.714000
     16 C3Q          2.0210     1.7620    -0.4710 c6         1 1JB       0.180300
     17 O3Q          0.8220     2.4230    -0.0160 oh         1 1JB      -0.679000
     18 C2Q          2.6340     0.9170     0.6930 c6         1 1JB       0.112300
     19 O2Q          1.6420     0.0070     1.2300 oh         1 1JB      -0.712000
     20 O3A          1.9520    -2.1690    -0.1800 os         1 1JB      -0.690800
     21 PA           1.2520    -3.5880    -0.2350 p5         1 1JB       1.458800
     22 O1A          0.9960    -4.0740    -1.6240 o          1 1JB      -0.850500
     23 O2A          1.8790    -4.6270     0.6350 o          1 1JB      -0.850500
     24 O5X         -0.1290    -3.1260     0.4480 os         1 1JB      -0.568400
     25 C5X         -1.1600    -2.5450    -0.3680 c3         1 1JB       0.225600
     26 C4X         -2.3030    -2.0650     0.5640 c5         1 1JB       0.167300
     27 O4X         -2.1640    -0.6600     0.8490 os         1 1JB      -0.402000
     28 C3X         -3.7320    -2.1240    -0.0560 c5         1 1JB       0.127300
     29 O3X         -4.2810    -3.4470    -0.1020 oh         1 1JB      -0.704000
     30 C2X         -4.5130    -1.2150     0.9380 c5         1 1JB      -0.154400
     31 C1X         -3.3970    -0.2520     1.4610 c5         1 1JB       0.348700
     32 C2          -3.6420     1.6350    -0.1920 c          1 1JB       0.622000
     33 O2          -3.3150     0.9550    -1.1520 o          1 1JB      -0.529000
     34 C5M         -4.8820     4.2980     2.9960 c3         1 1JB      -0.007900
     35 O4          -4.5670     5.0160     0.2410 o          1 1JB      -0.564000
     36 H1          -3.8560     3.2920    -1.3150 hn         1 1JB       0.338500
     37 H2          -4.2310     1.5200     3.1470 h4         1 1JB       0.198000
     38 H4           4.4790    -0.1990     1.0860 h2         1 1JB       0.074700
     39 H5           4.0220     1.2350    -2.2750 h1         1 1JB       0.099700
     40 H6           6.3000     2.1890    -2.4130 hc         1 1JB       0.032033
     41 H7           5.1330     3.4200    -2.9110 hc         1 1JB       0.032033
     42 H8           5.8830     3.5060    -1.3070 hc         1 1JB       0.032033
     43 H9           2.6480     3.2770    -1.9200 h1         1 1JB       0.024700
     44 H10          4.2450     3.3860     0.4120 ho         1 1JB       0.482000
     45 H11          1.7630     1.0650    -1.2860 h1         1 1JB       0.083700
     46 H12          0.4650     1.8200     0.6760 ho         1 1JB       0.447000
     47 H13          2.9200     1.6170     1.4910 h1         1 1JB       0.028700
     48 H14          1.6540    -0.8140     0.6600 ho         1 1JB       0.494000
     49 H16         -0.7820    -1.6970    -0.9610 h1         1 1JB       0.030200
     50 H17         -1.5610    -3.3000    -1.0600 h1         1 1JB       0.030200
     51 H18         -2.2680    -2.6330     1.5060 h1         1 1JB       0.070700
     52 H19         -3.7170    -1.6740    -1.0610 h1         1 1JB       0.071700
     53 H20         -5.2060    -3.3670    -0.4360 ho         1 1JB       0.488000
     54 H21         -5.3490    -0.6970     0.4520 hc         1 1JB       0.050700
     55 H22         -4.9330    -1.7890     1.7740 hc         1 1JB       0.050700
     56 H23         -3.3090    -0.3270     2.5520 h2         1 1JB       0.044700
     57 H24         -5.8770     4.7080     2.7810 hc         1 1JB       0.035700
     58 H25         -4.9250     3.8180     3.9830 hc         1 1JB       0.035700
     59 H26         -4.1770     5.1360     3.0690 hc         1 1JB       0.035700
@<TRIPOS>BOND
     1     1     5 1   
     2     1    31 1   
     3     1    32 1   
     4     2     3 1   
     5     2    32 1   
     6     2    36 1   
     7     3     4 1   
     8     3    35 2   
     9     4     5 2   
    10     4    34 1   
    11     5    37 1   
    12     6     7 1   
    13     7     8 1   
    14     7     9 1   
    15     7    20 1   
    16     9    10 1   
    17    10    11 1   
    18    10    18 1   
    19    10    38 1   
    20    11    12 1   
    21    12    13 1   
    22    12    14 1   
    23    12    39 1   
    24    13    40 1   
    25    13    41 1   
    26    13    42 1   
    27    14    15 1   
    28    14    16 1   
    29    14    43 1   
    30    15    44 1   
    31    16    17 1   
    32    16    18 1   
    33    16    45 1   
    34    17    46 1   
    35    18    19 1   
    36    18    47 1   
    37    19    48 1   
    38    20    21 1   
    39    21    22 1   
    40    21    23 1   
    41    21    24 1   
    42    24    25 1   
    43    25    26 1   
    44    25    49 1   
    45    25    50 1   
    46    26    27 1   
    47    26    28 1   
    48    26    51 1   
    49    27    31 1   
    50    28    29 1   
    51    28    30 1   
    52    28    52 1   
    53    29    53 1   
    54    30    31 1   
    55    30    54 1   
    56    30    55 1   
    57    31    56 1   
    58    32    33 2   
    59    34    57 1   
    60    34    58 1   
    61    34    59 1   
@<TRIPOS>SUBSTRUCTURE
     1 1JB         1 TEMP              0 ****  ****    0 ROOT
