@<TRIPOS>MOLECULE
1JB
   59    61     1     0     0
SMALL
bcc


@<TRIPOS>ATOM
      1 N1          -5.1310     0.5980     0.9030 n          1 1JB      -0.379000
      2 N3          -5.8500     1.7580    -0.9600 ns         1 1JB      -0.601500
      3 C4          -6.1130     2.9350    -0.2850 c          1 1JB       0.739700
      4 C5          -5.8220     2.8870     1.1340 cc         1 1JB      -0.298400
      5 C6          -5.3480     1.7350     1.6380 cd         1 1JB       0.073600
      6 O1B          3.1510    -0.9720    -2.1780 o          1 1JB      -0.847000
      7 PB           2.9480    -1.1620    -0.7090 p5         1 1JB       1.462800
      8 O2B          3.5740    -2.3070     0.0210 o          1 1JB      -0.847000
      9 O3B          3.2980     0.2460     0.0850 os         1 1JB      -0.561200
     10 C1Q          4.5430     0.4020     0.6960 c6         1 1JB       0.373900
     11 O5Q          5.5970     0.3240    -0.2170 os         1 1JB      -0.429600
     12 C5Q          5.6140     1.3390    -1.2140 c6         1 1JB       0.115100
     13 C6Q          6.7720     1.0330    -2.1410 c3         1 1JB      -0.083100
     14 C4Q          5.7060     2.7270    -0.5760 c6         1 1JB       0.120100
     15 O4Q          6.9120     2.9260     0.1230 oh         1 1JB      -0.591800
     16 C3Q          4.5500     2.8930     0.4010 c6         1 1JB       0.157100
     17 O3Q          4.6490     4.1510     1.0200 oh         1 1JB      -0.616800
     18 C2Q          4.5570     1.7560     1.4160 c6         1 1JB       0.089100
     19 O2Q          3.4400     1.9230     2.2550 oh         1 1JB      -0.589800
     20 O3A          1.3420    -1.0840    -0.3620 os         1 1JB      -0.690800
     21 PA           0.1800    -1.7390    -1.3180 p5         1 1JB       1.458800
     22 O1A         -0.3170    -0.7280    -2.3010 o          1 1JB      -0.850500
     23 O2A          0.5870    -3.1050    -1.7750 o          1 1JB      -0.850500
     24 O5X         -0.8990    -1.8690    -0.0790 os         1 1JB      -0.545200
     25 C5X         -2.1880    -2.3470    -0.3990 c3         1 1JB       0.202400
     26 C4X         -3.0920    -2.1950     0.7990 c5         1 1JB       0.144100
     27 O4X         -3.2880    -0.8220     1.0860 os         1 1JB      -0.355600
     28 C3X         -4.4790    -2.7980     0.5760 c5         1 1JB       0.104100
     29 O3X         -4.4630    -4.1400     0.9970 oh         1 1JB      -0.581800
     30 C2X         -5.3790    -1.8810     1.4050 c5         1 1JB      -0.154400
     31 C1X         -4.5800    -0.5840     1.5660 c5         1 1JB       0.325500
     32 C2          -5.3670     0.5790    -0.4520 c          1 1JB       0.831500
     33 O2          -5.1750    -0.3910    -1.1540 o          1 1JB      -0.604500
     34 C5M         -6.0560     4.1060     1.9630 c3         1 1JB      -0.007900
     35 O4          -6.5500     3.9060    -0.8770 o          1 1JB      -0.639500
     36 H1          -6.0300     1.7540    -1.9570 hn         1 1JB       0.338500
     37 H2          -5.1100     1.6470     2.6900 h4         1 1JB       0.148000
     38 H4           4.7230    -0.4060     1.4140 h2         1 1JB       0.074700
     39 H5           4.6890     1.3060    -1.8010 h1         1 1JB       0.099700
     40 H6           6.6220     0.0730    -2.6350 hc         1 1JB       0.032033
     41 H7           6.8480     1.7950    -2.9170 hc         1 1JB       0.032033
     42 H8           7.7230     0.9890    -1.6090 hc         1 1JB       0.032033
     43 H9           5.5910     3.4680    -1.3810 h1         1 1JB       0.024700
     44 H10          7.6240     3.0320    -0.5140 ho         1 1JB       0.383000
     45 H11          3.6240     2.8240    -0.1890 h1         1 1JB       0.083700
     46 H12          3.9040     4.2390     1.6230 ho         1 1JB       0.408000
     47 H13          5.4890     1.8020     1.9940 h1         1 1JB       0.028700
     48 H14          3.5660     1.3950     3.0490 ho         1 1JB       0.395000
     49 H16         -2.6210    -1.8000    -1.2450 h1         1 1JB       0.030200
     50 H17         -2.1590    -3.4090    -0.6700 h1         1 1JB       0.030200
     51 H18         -2.6350    -2.6930     1.6680 h1         1 1JB       0.070700
     52 H19         -4.7500    -2.7300    -0.4810 h1         1 1JB       0.071700
     53 H20         -5.2350    -4.5800     0.6310 ho         1 1JB       0.389000
     54 H21         -6.3650    -1.7250     0.9700 hc         1 1JB       0.050700
     55 H22         -5.5240    -2.3230     2.3920 hc         1 1JB       0.050700
     56 H23         -4.5430    -0.3050     2.6220 h2         1 1JB       0.044700
     57 H24         -7.1040     4.4090     1.9380 hc         1 1JB       0.035700
     58 H25         -5.7850     3.9270     3.0020 hc         1 1JB       0.035700
     59 H26         -5.4680     4.9520     1.6040 hc         1 1JB       0.035700
@<TRIPOS>BOND
     1     1     5 1   
     2     1    31 1   
     3     1    32 1   
     4     2     3 1   
     5     2    32 1   
     6     2    36 1   
     7     3     4 1   
     8     3    35 2   
     9     4     5 2   
    10     4    34 1   
    11     5    37 1   
    12     6     7 1   
    13     7     8 1   
    14     7     9 1   
    15     7    20 1   
    16     9    10 1   
    17    10    11 1   
    18    10    18 1   
    19    10    38 1   
    20    11    12 1   
    21    12    13 1   
    22    12    14 1   
    23    12    39 1   
    24    13    40 1   
    25    13    41 1   
    26    13    42 1   
    27    14    15 1   
    28    14    16 1   
    29    14    43 1   
    30    15    44 1   
    31    16    17 1   
    32    16    18 1   
    33    16    45 1   
    34    17    46 1   
    35    18    19 1   
    36    18    47 1   
    37    19    48 1   
    38    20    21 1   
    39    21    22 1   
    40    21    23 1   
    41    21    24 1   
    42    24    25 1   
    43    25    26 1   
    44    25    49 1   
    45    25    50 1   
    46    26    27 1   
    47    26    28 1   
    48    26    51 1   
    49    27    31 1   
    50    28    29 1   
    51    28    30 1   
    52    28    52 1   
    53    29    53 1   
    54    30    31 1   
    55    30    54 1   
    56    30    55 1   
    57    31    56 1   
    58    32    33 2   
    59    34    57 1   
    60    34    58 1   
    61    34    59 1   
@<TRIPOS>SUBSTRUCTURE
     1 1JB         1 TEMP              0 ****  ****    0 ROOT
