@<TRIPOS>MOLECULE
1JC
   67    72     1     0     0
SMALL
bcc


@<TRIPOS>ATOM
      1 C            3.7120     0.6730    -0.2050 ca         1 1JC      -0.094300
      2 C1           4.0150     1.6020    -1.2100 ca         1 1JC       0.425200
      3 N            3.2430     2.6140    -1.5310 nb         1 1JC      -0.677000
      4 C2           2.0660     2.7860    -0.9100 ca         1 1JC       0.485100
      5 C3           1.6740     1.9320     0.1290 ca         1 1JC      -0.246900
      6 C4           2.5260     0.8840     0.4780 ca         1 1JC      -0.058000
      7 C5           1.3170     3.9260    -1.3950 cc         1 1JC      -0.199800
      8 C6           0.0100     4.1990    -1.2700 cd         1 1JC      -0.103200
      9 C7          -1.0370     3.4360    -0.6220 ca         1 1JC       0.000200
     10 C8          -0.8490     2.4580     0.3680 ca         1 1JC      -0.140600
     11 C9           0.4560     2.0800     0.9630 c          1 1JC       0.603300
     12 C10         -2.3530     3.7390    -1.0060 ca         1 1JC      -0.130000
     13 C11         -3.4350     3.0630    -0.4880 ca         1 1JC      -0.082000
     14 C12         -3.2450     2.0770     0.4800 ca         1 1JC      -0.084300
     15 C13         -1.9590     1.8030     0.9070 ca         1 1JC      -0.063000
     16 C14         -4.4020     1.3040     1.0240 c3         1 1JC      -0.174300
     17 S           -4.6670    -0.1630     0.0110 s6         1 1JC       1.224900
     18 N15         -5.9390    -0.9670     0.6540 n7         1 1JC      -0.830100
     19 O            0.5060     1.7600     2.1350 o          1 1JC      -0.525100
     20 O16         -5.0530     0.2870    -1.3180 o          1 1JC      -0.587300
     21 O17         -3.5060    -1.0240     0.1670 o          1 1JC      -0.587300
     22 C18          4.5940    -0.4390     0.1090 cc         1 1JC      -0.234300
     23 C19          5.8900    -0.6570    -0.3260 cd         1 1JC      -0.114300
     24 N20          6.2930    -1.8190     0.2070 na         1 1JC       0.118400
     25 N21          5.3560    -2.3780     0.9690 nd         1 1JC      -0.524800
     26 C22          4.3250    -1.5610     0.9200 cc         1 1JC       0.327200
     27 C23         -7.2940    -0.4400     0.5760 c3         1 1JC       0.171500
     28 C24         -8.2670    -1.5480     0.2680 ca         1 1JC       0.396600
     29 N25         -8.1170    -2.1690    -0.8990 nb         1 1JC      -0.637000
     30 C26         -8.9570    -3.1480    -1.2020 ca         1 1JC       0.407200
     31 C27         -9.9880    -3.5590    -0.3670 ca         1 1JC      -0.241300
     32 C28        -10.1430    -2.9120     0.8470 ca         1 1JC      -0.091000
     33 C29         -9.2650    -1.8870     1.1710 ca         1 1JC      -0.240300
     34 C30          7.6020    -2.4440     0.0940 c6         1 1JC       0.061000
     35 C31          8.6360    -1.7490     0.9760 c6         1 1JC      -0.090900
     36 C32          9.9810    -2.4490     0.8290 c6         1 1JC       0.159300
     37 N33         10.3890    -2.4450    -0.5640 n7         1 1JC      -0.810200
     38 C34          9.4520    -3.1750    -1.3970 c6         1 1JC       0.159300
     39 C35          8.0840    -2.5070    -1.3500 c6         1 1JC      -0.090900
     40 H1           4.9350     1.5100    -1.7790 h4         1 1JC       0.017100
     41 H2           2.2430     0.2270     1.2890 ha         1 1JC       0.155000
     42 H3           1.9050     4.6040    -2.0020 ha         1 1JC       0.147000
     43 H4          -0.3390     5.0870    -1.7850 ha         1 1JC       0.130000
     44 H5          -2.5130     4.5150    -1.7420 ha         1 1JC       0.137000
     45 H6          -4.4340     3.3100    -0.8240 ha         1 1JC       0.142000
     46 H7          -1.8080     1.0570     1.6770 ha         1 1JC       0.155000
     47 H8          -4.2250     0.9540     2.0420 h1         1 1JC       0.092700
     48 H9          -5.3290     1.8790     1.0060 h1         1 1JC       0.092700
     49 H10         -5.7110    -1.4510     1.5140 hn         1 1JC       0.432800
     50 H11          6.5340    -0.0680    -0.9590 h4         1 1JC       0.175000
     51 H12          3.4170    -1.8020     1.4520 h4         1 1JC       0.043100
     52 H13         -7.5740     0.0590     1.5060 h1         1 1JC       0.059200
     53 H14         -7.3420     0.3020    -0.2210 h1         1 1JC       0.059200
     54 H15         -8.8080    -3.6320    -2.1610 h4         1 1JC       0.025100
     55 H16        -10.6450    -4.3640    -0.6670 ha         1 1JC       0.144000
     56 H17        -10.9280    -3.2000     1.5330 ha         1 1JC       0.139000
     57 H18         -9.3480    -1.3610     2.1140 ha         1 1JC       0.137000
     58 H19          7.4570    -3.4640     0.4580 h1         1 1JC       0.084700
     59 H20          8.7350    -0.7020     0.6760 hc         1 1JC       0.060700
     60 H21          8.3160    -1.7690     2.0190 hc         1 1JC       0.060700
     61 H22         10.7340    -1.9290     1.4230 h1         1 1JC       0.036450
     62 H23          9.8940    -3.4680     1.2410 h1         1 1JC       0.036450
     63 H24         11.3080    -2.8570    -0.6480 hn         1 1JC       0.361800
     64 H26          9.8190    -3.1840    -2.4250 h1         1 1JC       0.036450
     65 H27          9.3420    -4.2280    -1.0880 h1         1 1JC       0.036450
     66 H28          7.3730    -3.0650    -1.9630 hc         1 1JC       0.060700
     67 H29          8.1680    -1.5000    -1.7680 hc         1 1JC       0.060700
@<TRIPOS>BOND
     1     1     2 ar  
     2     1     6 ar  
     3     1    22 1   
     4     2     3 ar  
     5     2    40 1   
     6     3     4 ar  
     7     4     5 ar  
     8     4     7 1   
     9     5     6 ar  
    10     5    11 1   
    11     6    41 1   
    12     7     8 2   
    13     7    42 1   
    14     8     9 1   
    15     8    43 1   
    16     9    10 ar  
    17     9    12 ar  
    18    10    11 1   
    19    10    15 ar  
    20    11    19 2   
    21    12    13 ar  
    22    12    44 1   
    23    13    14 ar  
    24    13    45 1   
    25    14    15 ar  
    26    14    16 1   
    27    15    46 1   
    28    16    17 1   
    29    16    47 1   
    30    16    48 1   
    31    17    18 1   
    32    17    20 2   
    33    17    21 2   
    34    18    27 1   
    35    18    49 1   
    36    22    23 2   
    37    22    26 1   
    38    23    24 1   
    39    23    50 1   
    40    24    25 1   
    41    24    34 1   
    42    25    26 2   
    43    26    51 1   
    44    27    28 1   
    45    27    52 1   
    46    27    53 1   
    47    28    29 ar  
    48    28    33 ar  
    49    29    30 ar  
    50    30    31 ar  
    51    30    54 1   
    52    31    32 ar  
    53    31    55 1   
    54    32    33 ar  
    55    32    56 1   
    56    33    57 1   
    57    34    35 1   
    58    34    39 1   
    59    34    58 1   
    60    35    36 1   
    61    35    59 1   
    62    35    60 1   
    63    36    37 1   
    64    36    61 1   
    65    36    62 1   
    66    37    38 1   
    67    37    63 1   
    68    38    39 1   
    69    38    64 1   
    70    38    65 1   
    71    39    66 1   
    72    39    67 1   
@<TRIPOS>SUBSTRUCTURE
     1 1JC         1 TEMP              0 ****  ****    0 ROOT
