@<TRIPOS>MOLECULE
1JC
   67    72     1     0     0
SMALL
No Charge or Current Charge


@<TRIPOS>ATOM
      1 C            3.7270     0.8030     0.3530 ca         1 1JC      -0.029000
      2 C1           4.1420     1.8690    -0.4750 ca         1 1JC       0.359900
      3 N            3.3910     2.9700    -0.7080 nb         1 1JC      -0.677000
      4 C2           2.1690     3.0600    -0.1400 ca         1 1JC       0.419800
      5 C3           1.6630     2.0460     0.6850 ca         1 1JC      -0.181600
      6 C4           2.4570     0.9090     0.9460 ca         1 1JC      -0.040000
      7 C5           1.4980     4.3230    -0.4120 cc         1 1JC      -0.249800
      8 C6           0.1540     4.4090    -0.7300 cd         1 1JC      -0.153200
      9 C7          -0.9260     3.4350    -0.5040 ca         1 1JC       0.000200
     10 C8          -0.8670     2.3870     0.4420 ca         1 1JC      -0.140600
     11 C9           0.3250     2.1390     1.3140 c          1 1JC       0.603300
     12 C10         -2.1250     3.6410    -1.2170 ca         1 1JC      -0.112000
     13 C11         -3.2360     2.8050    -1.0290 ca         1 1JC      -0.064000
     14 C12         -3.1760     1.7570    -0.1010 ca         1 1JC      -0.084300
     15 C13         -1.9980     1.5620     0.6380 ca         1 1JC      -0.045000
     16 C14         -4.3830     0.8510     0.1160 c3         1 1JC      -0.285100
     17 S           -4.3990    -0.6150    -0.9380 s6         1 1JC       1.194100
     18 N15         -5.7620    -1.4340    -0.4330 n7         1 1JC      -0.885300
     19 O            0.1910     1.9440     2.5170 o          1 1JC      -0.525100
     20 O16         -4.6400    -0.2260    -2.3300 o          1 1JC      -0.516500
     21 O17         -3.2700    -1.4850    -0.6030 o          1 1JC      -0.516500
     22 C18          4.5680    -0.3760     0.5990 cc         1 1JC      -0.169000
     23 C19          5.8070    -0.5340     0.0500 cd         1 1JC      -0.147000
     24 N20          6.2430    -1.7730     0.5400 na         1 1JC       0.139800
     25 N21          5.3170    -2.3890     1.3730 nd         1 1JC      -0.524800
     26 C22          4.3280    -1.5190     1.3820 cc         1 1JC       0.261900
     27 C23         -7.1030    -0.8320    -0.6800 c3         1 1JC       0.171500
     28 C24         -8.2640    -1.6790    -0.1320 ca         1 1JC       0.331300
     29 N25         -8.9350    -2.4640    -1.0140 nb         1 1JC      -0.637000
     30 C26         -9.9580    -3.2180    -0.5480 ca         1 1JC       0.341900
     31 C27        -10.3520    -3.2210     0.8010 ca         1 1JC      -0.158000
     32 C28         -9.6640    -2.4100     1.7160 ca         1 1JC      -0.073000
     33 C29         -8.6010    -1.6270     1.2360 ca         1 1JC      -0.157000
     34 C30          7.5490    -2.4030     0.2280 c6         1 1JC       0.090300
     35 C31          8.7330    -1.5310     0.7240 c6         1 1JC      -0.090900
     36 C32         10.0830    -2.1890     0.3600 c6         1 1JC       0.159300
     37 N33         10.1690    -2.4540    -1.0960 n7         1 1JC      -0.865400
     38 C34          9.0720    -3.3180    -1.5960 c6         1 1JC       0.159300
     39 C35          7.6920    -2.6930    -1.2890 c6         1 1JC      -0.090900
     40 H1           5.1130     1.8570    -0.9660 h4         1 1JC       0.017100
     41 H2           2.0810     0.1200     1.5930 ha         1 1JC       0.137000
     42 H3           2.1180     5.1930    -0.6100 ha         1 1JC       0.197000
     43 H4          -0.1640     5.3720    -1.1240 ha         1 1JC       0.180000
     44 H5          -2.1980     4.4560    -1.9330 ha         1 1JC       0.119000
     45 H6          -4.1450     2.9800    -1.6020 ha         1 1JC       0.124000
     46 H7          -1.9570     0.7590     1.3730 ha         1 1JC       0.137000
     47 H8          -4.4090     0.4920     1.1510 h1         1 1JC       0.092700
     48 H9          -5.3080     1.3980    -0.0950 h1         1 1JC       0.092700
     49 H10         -5.5990    -1.4940     0.5710 hn         1 1JC       0.488000
     50 H11          6.4000     0.0850    -0.6130 h4         1 1JC       0.157000
     51 H12          3.4460    -1.7450     1.9680 h4         1 1JC       0.043100
     52 H13         -7.1750     0.1640    -0.2230 h1         1 1JC       0.059200
     53 H14         -7.2600    -0.6930    -1.7580 h1         1 1JC       0.059200
     54 H15        -10.4760    -3.8380    -1.2790 h4         1 1JC       0.025100
     55 H16        -11.1810    -3.8450     1.1230 ha         1 1JC       0.126000
     56 H17         -9.9450    -2.3880     2.7680 ha         1 1JC       0.121000
     57 H18         -8.0440    -0.9850     1.9140 ha         1 1JC       0.119000
     58 H19          7.5900    -3.3630     0.7620 h1         1 1JC       0.084700
     59 H20          8.6840    -0.5300     0.2750 hc         1 1JC       0.060700
     60 H21          8.6690    -1.3920     1.8120 hc         1 1JC       0.060700
     61 H22         10.9090    -1.5280     0.6630 h1         1 1JC       0.036450
     62 H23         10.1930    -3.1340     0.9130 h1         1 1JC       0.036450
     63 H24         11.0690    -2.9100    -1.2980 hn         1 1JC       0.417000
     64 H26          9.1800    -3.4590    -2.6820 h1         1 1JC       0.036450
     65 H27          9.1410    -4.3090    -1.1230 h1         1 1JC       0.036450
     66 H28          6.8960    -3.3730    -1.6200 hc         1 1JC       0.060700
     67 H29          7.5770    -1.7670    -1.8680 hc         1 1JC       0.060700
@<TRIPOS>BOND
     1     1     2 ar  
     2     1     6 ar  
     3     1    22 1   
     4     2     3 ar  
     5     2    40 1   
     6     3     4 ar  
     7     4     5 ar  
     8     4     7 1   
     9     5     6 ar  
    10     5    11 1   
    11     6    41 1   
    12     7     8 2   
    13     7    42 1   
    14     8     9 1   
    15     8    43 1   
    16     9    10 ar  
    17     9    12 ar  
    18    10    11 1   
    19    10    15 ar  
    20    11    19 2   
    21    12    13 ar  
    22    12    44 1   
    23    13    14 ar  
    24    13    45 1   
    25    14    15 ar  
    26    14    16 1   
    27    15    46 1   
    28    16    17 1   
    29    16    47 1   
    30    16    48 1   
    31    17    18 1   
    32    17    20 2   
    33    17    21 2   
    34    18    27 1   
    35    18    49 1   
    36    22    23 2   
    37    22    26 1   
    38    23    24 1   
    39    23    50 1   
    40    24    25 1   
    41    24    34 1   
    42    25    26 2   
    43    26    51 1   
    44    27    28 1   
    45    27    52 1   
    46    27    53 1   
    47    28    29 ar  
    48    28    33 ar  
    49    29    30 ar  
    50    30    31 ar  
    51    30    54 1   
    52    31    32 ar  
    53    31    55 1   
    54    32    33 ar  
    55    32    56 1   
    56    33    57 1   
    57    34    35 1   
    58    34    39 1   
    59    34    58 1   
    60    35    36 1   
    61    35    59 1   
    62    35    60 1   
    63    36    37 1   
    64    36    61 1   
    65    36    62 1   
    66    37    38 1   
    67    37    63 1   
    68    38    39 1   
    69    38    64 1   
    70    38    65 1   
    71    39    66 1   
    72    39    67 1   
@<TRIPOS>SUBSTRUCTURE
     1 1JC         1 TEMP              0 ****  ****    0 ROOT
