@<TRIPOS>MOLECULE
1JD
   55    58     1     0     0
SMALL
abcg2


@<TRIPOS>ATOM
      1 C1           9.1020    -2.3570     0.4950 c3         1 1JD      -0.036800
      2 C2           7.7720    -1.7920     0.1030 ca         1 1JD      -0.159300
      3 C3           7.5690    -1.1560    -1.1230 ca         1 1JD      -0.048000
      4 C4           6.3280    -0.6530    -1.4460 ca         1 1JD      -0.213000
      5 C5           5.2940    -0.7920    -0.5140 ca         1 1JD       0.484900
      6 N1           5.4650    -1.3820     0.6520 nb         1 1JD      -0.672000
      7 C6           6.6690    -1.8680     0.9390 ca         1 1JD       0.372900
      8 N2           4.0480    -0.2560    -0.8410 ns         1 1JD      -0.333900
      9 C7           2.8480    -0.4580    -0.2330 c          1 1JD       0.622100
     10 O1           2.6410    -1.2210     0.6780 o          1 1JD      -0.489100
     11 C8           1.7410     0.4040    -0.8510 c3         1 1JD       0.087300
     12 C9           1.9940     1.8790    -0.5830 c3         1 1JD       0.144600
     13 O2           2.2240     2.0290     0.7860 os         1 1JD      -0.446000
     14 C10          2.6830     3.3140     1.1800 c3         1 1JD       0.174300
     15 C11          1.5820     4.3620     1.0920 c3         1 1JD      -0.107100
     16 C12          3.2120     3.1760     2.5950 c3         1 1JD      -0.107100
     17 O3           0.5430    -0.0280    -0.2250 os         1 1JD      -0.402300
     18 C13         -0.6160     0.1800    -0.8160 ca         1 1JD       0.431300
     19 C14         -1.7780    -0.2250    -0.1460 ca         1 1JD      -0.343900
     20 C15         -2.1690    -0.8290     1.0750 cc         1 1JD       0.421800
     21 N3          -3.4670    -0.9280     1.1350 nd         1 1JD      -0.500100
     22 N4          -3.9600    -0.4080    -0.0100 na         1 1JD      -0.045600
     23 C16         -2.9690     0.0280    -0.8230 ca         1 1JD       0.173500
     24 N5          -3.0810     0.6070    -2.0170 nb         1 1JD      -0.186000
     25 C17         -1.9160     0.9300    -2.5330 ca         1 1JD       0.189900
     26 N6          -0.7010     0.7470    -1.9980 nb         1 1JD      -0.324000
     27 C18         -5.3440    -0.4030    -0.2630 ca         1 1JD       0.477500
     28 C19         -6.2210     0.2570     0.5930 ca         1 1JD       0.081000
     29 C20         -7.5770     0.2080     0.3110 ca         1 1JD      -0.066000
     30 C21         -7.9940    -0.4670    -0.8230 ca         1 1JD      -0.154000
     31 C22         -7.0370    -1.0650    -1.6290 ca         1 1JD       0.356900
     32 N7          -5.7430    -1.0400    -1.3440 nb         1 1JD      -0.650000
     33 CL1         -5.6520     1.1490     1.9470 cl         1 1JD      -0.151000
     34 H1           9.4050    -3.1630    -0.1750 hc         1 1JD       0.043367
     35 H2           9.8830    -1.5960     0.4570 hc         1 1JD       0.043367
     36 H3           9.0790    -2.7600     1.5070 hc         1 1JD       0.043367
     37 H4           8.3850    -1.0580    -1.8290 ha         1 1JD       0.117000
     38 H5           6.1580    -0.1630    -2.3960 ha         1 1JD       0.119000
     39 H6           6.7610    -2.3480     1.9090 h4         1 1JD       0.023100
     40 H7           4.0460     0.3240    -1.6670 hn         1 1JD       0.149000
     41 H8           1.6940     0.2380    -1.9320 h1         1 1JD       0.087700
     42 H9           2.8590     2.2070    -1.1770 h1         1 1JD       0.035700
     43 H10          1.1390     2.4650    -0.9390 h1         1 1JD       0.035700
     44 H11          3.5100     3.6150     0.5200 h1         1 1JD       0.025700
     45 H12          0.7280     4.0780     1.7090 hc         1 1JD       0.044200
     46 H13          1.9520     5.3230     1.4490 hc         1 1JD       0.044200
     47 H14          1.2310     4.5120     0.0700 hc         1 1JD       0.044200
     48 H15          4.0060     2.4310     2.6500 hc         1 1JD       0.044200
     49 H16          3.6190     4.1270     2.9380 hc         1 1JD       0.044200
     50 H17          2.4170     2.8840     3.2840 hc         1 1JD       0.044200
     51 H18         -1.5520    -1.1860     1.8840 h4         1 1JD       0.071800
     52 H19         -1.9300     1.4050    -3.5070 h5         1 1JD       0.050100
     53 H20         -8.2870     0.7040     0.9580 ha         1 1JD       0.138000
     54 H21         -9.0420    -0.5220    -1.0790 ha         1 1JD       0.133000
     55 H22         -7.3240    -1.5900    -2.5310 h4         1 1JD       0.031100
@<TRIPOS>BOND
     1     1     2 1   
     2     1    34 1   
     3     1    35 1   
     4     1    36 1   
     5     2     3 ar  
     6     2     7 ar  
     7     3     4 ar  
     8     3    37 1   
     9     4     5 ar  
    10     4    38 1   
    11     5     6 ar  
    12     5     8 1   
    13     6     7 ar  
    14     7    39 1   
    15     8     9 1   
    16     8    40 1   
    17     9    10 2   
    18     9    11 1   
    19    11    12 1   
    20    11    17 1   
    21    11    41 1   
    22    12    13 1   
    23    12    42 1   
    24    12    43 1   
    25    13    14 1   
    26    14    15 1   
    27    14    16 1   
    28    14    44 1   
    29    15    45 1   
    30    15    46 1   
    31    15    47 1   
    32    16    48 1   
    33    16    49 1   
    34    16    50 1   
    35    17    18 1   
    36    18    19 ar  
    37    18    26 ar  
    38    19    20 1   
    39    19    23 ar  
    40    20    21 2   
    41    20    51 1   
    42    21    22 1   
    43    22    23 1   
    44    22    27 1   
    45    23    24 ar  
    46    24    25 ar  
    47    25    26 ar  
    48    25    52 1   
    49    27    28 ar  
    50    27    32 ar  
    51    28    29 ar  
    52    28    33 1   
    53    29    30 ar  
    54    29    53 1   
    55    30    31 ar  
    56    30    54 1   
    57    31    32 ar  
    58    31    55 1   
@<TRIPOS>SUBSTRUCTURE
     1 1JD         1 TEMP              0 ****  ****    0 ROOT
