@<TRIPOS>MOLECULE
1JD
   55    58     1     0     0
SMALL
No Charge or Current Charge


@<TRIPOS>ATOM
      1 C1           9.5980    -1.9600     0.4420 c3         1 1JD      -0.036800
      2 C2           8.1970    -1.5440     0.0150 ca         1 1JD      -0.159300
      3 C3           7.9200    -1.2420    -1.3300 ca         1 1JD      -0.048000
      4 C4           6.6130    -0.8600    -1.6660 ca         1 1JD      -0.213000
      5 C5           5.6350    -0.8110    -0.6620 ca         1 1JD       0.484900
      6 N1           5.8950    -1.0670     0.6340 nb         1 1JD      -0.672000
      7 C6           7.1550    -1.4370     0.9590 ca         1 1JD       0.372900
      8 N2           4.3370    -0.3690    -0.9510 ns         1 1JD      -0.333900
      9 C7           3.1270    -0.7010    -0.3690 c          1 1JD       0.622100
     10 O1           3.0100    -1.5700     0.4900 o          1 1JD      -0.489100
     11 C8           1.9150     0.0590    -0.9670 c3         1 1JD       0.087300
     12 C9           1.9520     1.5590    -0.5700 c3         1 1JD       0.144600
     13 O2           1.9460     1.6580     0.8690 os         1 1JD      -0.446000
     14 C10          1.9570     2.9880     1.4210 c3         1 1JD       0.174300
     15 C11          0.5920     3.6650     1.1550 c3         1 1JD      -0.107100
     16 C12          2.2450     2.8320     2.9250 c3         1 1JD      -0.107100
     17 O3           0.6460    -0.5130    -0.5320 os         1 1JD      -0.402300
     18 C13         -0.5490    -0.1400    -1.1000 ca         1 1JD       0.431300
     19 C14         -1.7280    -0.3840    -0.4060 ca         1 1JD      -0.343900
     20 C15         -1.9660    -0.9620     0.8840 cc         1 1JD       0.421800
     21 N3          -3.2760    -0.9750     1.1770 nd         1 1JD      -0.500100
     22 N4          -3.8480    -0.3930     0.0360 na         1 1JD      -0.045600
     23 C16         -2.9320    -0.0320    -0.9320 ca         1 1JD       0.173500
     24 N5          -3.0330     0.5500    -2.1420 nb         1 1JD      -0.186000
     25 C17         -1.8550     0.7500    -2.7820 ca         1 1JD       0.189900
     26 N6          -0.6160     0.4330    -2.3240 nb         1 1JD      -0.324000
     27 C18         -5.2220    -0.1730    -0.1120 ca         1 1JD       0.477500
     28 C19         -5.7100     1.1330     0.1790 ca         1 1JD       0.081000
     29 C20         -7.0800     1.4070     0.0410 ca         1 1JD      -0.066000
     30 C21         -7.9300     0.3740    -0.3810 ca         1 1JD      -0.154000
     31 C22         -7.3840    -0.8890    -0.6500 ca         1 1JD       0.356900
     32 N7          -6.0660    -1.1620    -0.5210 nb         1 1JD      -0.650000
     33 Cl1         -4.6400     2.4390     0.7140 cl         1 1JD      -0.151000
     34 H1          10.0690    -2.6030    -0.3110 hc         1 1JD       0.043367
     35 H2          10.2410    -1.0820     0.5820 hc         1 1JD       0.043367
     36 H3           9.5820    -2.5170     1.3870 hc         1 1JD       0.043367
     37 H4           8.6970    -1.2980    -2.0900 ha         1 1JD       0.117000
     38 H5           6.3580    -0.6080    -2.6920 ha         1 1JD       0.119000
     39 H6           7.3360    -1.6490     2.0130 h4         1 1JD       0.023100
     40 H7           4.2890     0.2980    -1.7080 hn         1 1JD       0.149000
     41 H8           2.0130    -0.0180    -2.0570 h1         1 1JD       0.087700
     42 H9           2.8590     2.0220    -0.9800 h1         1 1JD       0.035700
     43 H10          1.0900     2.0740    -1.0110 h1         1 1JD       0.035700
     44 H11          2.7580     3.5900     0.9720 h1         1 1JD       0.025700
     45 H12         -0.2350     3.0100     1.4560 hc         1 1JD       0.044200
     46 H13          0.5130     4.5990     1.7230 hc         1 1JD       0.044200
     47 H14          0.4730     3.9160     0.0950 hc         1 1JD       0.044200
     48 H15          3.2110     2.3370     3.0810 hc         1 1JD       0.044200
     49 H16          2.2840     3.8130     3.4130 hc         1 1JD       0.044200
     50 H17          1.4650     2.2350     3.4130 hc         1 1JD       0.044200
     51 H18         -1.2820    -1.3630     1.6200 h4         1 1JD       0.071800
     52 H19         -1.9080     1.2160    -3.7650 h5         1 1JD       0.050100
     53 H20         -7.4730     2.3980     0.2590 ha         1 1JD       0.138000
     54 H21         -8.9970     0.5420    -0.5000 ha         1 1JD       0.133000
     55 H22         -8.0200    -1.7100    -0.9790 h4         1 1JD       0.031100
@<TRIPOS>BOND
     1     1     2 1   
     2     1    34 1   
     3     1    35 1   
     4     1    36 1   
     5     2     3 ar  
     6     2     7 ar  
     7     3     4 ar  
     8     3    37 1   
     9     4     5 ar  
    10     4    38 1   
    11     5     6 ar  
    12     5     8 1   
    13     6     7 ar  
    14     7    39 1   
    15     8     9 1   
    16     8    40 1   
    17     9    10 2   
    18     9    11 1   
    19    11    12 1   
    20    11    17 1   
    21    11    41 1   
    22    12    13 1   
    23    12    42 1   
    24    12    43 1   
    25    13    14 1   
    26    14    15 1   
    27    14    16 1   
    28    14    44 1   
    29    15    45 1   
    30    15    46 1   
    31    15    47 1   
    32    16    48 1   
    33    16    49 1   
    34    16    50 1   
    35    17    18 1   
    36    18    19 ar  
    37    18    26 ar  
    38    19    20 1   
    39    19    23 ar  
    40    20    21 2   
    41    20    51 1   
    42    21    22 1   
    43    22    23 1   
    44    22    27 1   
    45    23    24 ar  
    46    24    25 ar  
    47    25    26 ar  
    48    25    52 1   
    49    27    28 ar  
    50    27    32 ar  
    51    28    29 ar  
    52    28    33 1   
    53    29    30 ar  
    54    29    53 1   
    55    30    31 ar  
    56    30    54 1   
    57    31    32 ar  
    58    31    55 1   
@<TRIPOS>SUBSTRUCTURE
     1 1JD         1 TEMP              0 ****  ****    0 ROOT
