@<TRIPOS>MOLECULE
1JE
   38    40     1     0     0
SMALL
No Charge or Current Charge


@<TRIPOS>ATOM
      1 C1           1.5360     0.6850     0.3550 ca         1 1JE      -0.038200
      2 C2           2.7130     1.4210     0.5570 ca         1 1JE       0.111000
      3 C3           3.9450     0.7390     0.4830 ca         1 1JE      -0.104000
      4 C4           3.9770    -0.6500     0.2090 ca         1 1JE      -0.144000
      5 C5           2.7790    -1.3690     0.0090 ca         1 1JE       0.170000
      6 C6           1.5640    -0.6620     0.0940 ca         1 1JE      -0.052800
      7 N7           0.2220     1.1280     0.3710 na         1 1JE      -0.177700
      8 C8          -0.6420     0.0500     0.1070 cc         1 1JE       0.005700
      9 C9           0.1760    -1.0600    -0.0500 cd         1 1JE      -0.139400
     10 C10         -2.1600     0.0260     0.0450 c6         1 1JE       0.258200
     11 O11         -2.6160    -1.2460    -0.4900 os         1 1JE      -0.414000
     12 C12         -1.9550    -2.4240     0.0350 c6         1 1JE       0.156600
     13 C13         -0.4420    -2.4190    -0.3140 c6         1 1JE      -0.023200
     14 Cl1          2.6610     3.1480     0.8930 cl         1 1JE      -0.226000
     15 Cl2          2.8450    -3.0930    -0.3470 cl         1 1JE      -0.225000
     16 C16         -2.7360     1.1380    -0.8870 c3         1 1JE      -0.202400
     17 C17         -2.0880     1.1180    -2.2780 c          1 1JE       0.725000
     18 O18         -1.1060     1.8210    -2.4650 o          1 1JE      -0.725500
     19 O19         -2.6080     0.4450    -3.1560 o          1 1JE      -0.725500
     20 C20         -2.7320     0.1940     1.4980 c3         1 1JE      -0.101400
     21 C21         -4.2570    -0.0230     1.6810 c3         1 1JE      -0.069400
     22 C22         -4.7100     0.1150     3.1480 c3         1 1JE      -0.089100
     23 H1           4.8740     1.2840     0.6350 ha         1 1JE       0.114000
     24 H2           4.9310    -1.1680     0.1490 ha         1 1JE       0.114000
     25 H3          -0.0660     2.0880     0.5220 hn         1 1JE       0.362000
     26 H4          -2.0900    -2.4640     1.1250 h1         1 1JE       0.028700
     27 H5          -2.4310    -3.3180    -0.3910 h1         1 1JE       0.028700
     28 H6          -0.3110    -2.6910    -1.3700 hc         1 1JE       0.050700
     29 H7           0.0580    -3.1990     0.2750 hc         1 1JE       0.050700
     30 H8          -3.8090     0.9410    -0.9900 hc         1 1JE       0.027700
     31 H9          -2.5180     2.0960    -0.4000 hc         1 1JE       0.027700
     32 H11         -2.2070    -0.4880     2.1780 hc         1 1JE       0.030700
     33 H12         -2.4870     1.1990     1.8640 hc         1 1JE       0.030700
     34 H13         -4.8130     0.7040     1.0770 hc         1 1JE       0.050700
     35 H14         -4.5360    -1.0200     1.3200 hc         1 1JE       0.050700
     36 H15         -4.2060    -0.6250     3.7810 hc         1 1JE       0.021700
     37 H16         -4.4790     1.1160     3.5320 hc         1 1JE       0.021700
     38 H17         -5.7920    -0.0430     3.2300 hc         1 1JE       0.021700
@<TRIPOS>BOND
     1     1     2 ar  
     2     1     6 ar  
     3     1     7 1   
     4     2     3 ar  
     5     2    14 1   
     6     3     4 ar  
     7     3    23 1   
     8     4     5 ar  
     9     4    24 1   
    10     5     6 ar  
    11     5    15 1   
    12     6     9 1   
    13     7     8 1   
    14     7    25 1   
    15     8     9 2   
    16     8    10 1   
    17     9    13 1   
    18    10    11 1   
    19    10    16 1   
    20    10    20 1   
    21    11    12 1   
    22    12    13 1   
    23    12    26 1   
    24    12    27 1   
    25    13    28 1   
    26    13    29 1   
    27    16    17 1   
    28    16    30 1   
    29    16    31 1   
    30    17    18 1   
    31    17    19 1   
    32    20    21 1   
    33    20    32 1   
    34    20    33 1   
    35    21    22 1   
    36    21    34 1   
    37    21    35 1   
    38    22    36 1   
    39    22    37 1   
    40    22    38 1   
@<TRIPOS>SUBSTRUCTURE
     1 1JE         1 TEMP              0 ****  ****    0 ROOT
