@<TRIPOS>MOLECULE
1JE
   38    40     1     0     0
SMALL
abcg2


@<TRIPOS>ATOM
      1 C1           1.4680     0.6890     0.4090 ca         1 1JE      -0.038200
      2 C2           2.6240     1.4230     0.6410 ca         1 1JE       0.111000
      3 C3           3.8470     0.7900     0.5730 ca         1 1JE      -0.104000
      4 C4           3.9150    -0.5750     0.2720 ca         1 1JE      -0.144000
      5 C5           2.7650    -1.3020     0.0440 ca         1 1JE       0.170000
      6 C6           1.5090    -0.6950     0.1080 ca         1 1JE      -0.052800
      7 N7           0.1640     1.0720     0.4190 na         1 1JE      -0.177700
      8 C8          -0.6180    -0.0010     0.1070 cc         1 1JE       0.005700
      9 C9           0.1540    -1.1130    -0.0640 cd         1 1JE      -0.139400
     10 C10         -2.1160     0.0200     0.0550 c6         1 1JE       0.258200
     11 O11         -2.5490    -1.1960    -0.5310 os         1 1JE      -0.414000
     12 C12         -1.9410    -2.3700    -0.0320 c6         1 1JE       0.156600
     13 C13         -0.4590    -2.4370    -0.3810 c6         1 1JE      -0.023200
     14 CL1          2.4990     3.1100     1.0050 cl         1 1JE      -0.226000
     15 CL2          2.8880    -2.9900    -0.3370 cl         1 1JE      -0.225000
     16 C16         -2.6510     1.1320    -0.8490 c3         1 1JE      -0.202400
     17 C17         -2.2330     0.9830    -2.3230 c          1 1JE       0.725000
     18 O18         -1.0110     0.8990    -2.5480 o          1 1JE      -0.725500
     19 O19         -3.1480     0.9840    -3.1720 o          1 1JE      -0.725500
     20 C20         -2.6550     0.1770     1.4950 c3         1 1JE      -0.101400
     21 C21         -4.1440    -0.1030     1.6670 c3         1 1JE      -0.069400
     22 C22         -4.6070     0.1790     3.0900 c3         1 1JE      -0.089100
     23 H1           4.7580     1.3450     0.7500 ha         1 1JE       0.114000
     24 H2           4.8830    -1.0540     0.2160 ha         1 1JE       0.114000
     25 H3          -0.1580     2.0180     0.5460 hn         1 1JE       0.362000
     26 H4          -2.0670    -2.4480     1.0560 h1         1 1JE       0.028700
     27 H5          -2.4780    -3.2070    -0.4780 h1         1 1JE       0.028700
     28 H6          -0.3250    -2.6890    -1.4370 hc         1 1JE       0.050700
     29 H7          -0.0020    -3.2450     0.1930 hc         1 1JE       0.050700
     30 H8          -3.7390     1.1630    -0.7650 hc         1 1JE       0.027700
     31 H9          -2.2910     2.0950    -0.4710 hc         1 1JE       0.027700
     32 H11         -2.0940    -0.4750     2.1720 hc         1 1JE       0.030700
     33 H12         -2.4360     1.1970     1.8290 hc         1 1JE       0.030700
     34 H13         -4.7310     0.5040     0.9730 hc         1 1JE       0.050700
     35 H14         -4.3530    -1.1450     1.4160 hc         1 1JE       0.050700
     36 H15         -4.0670    -0.4340     3.8150 hc         1 1JE       0.021700
     37 H16         -4.4460     1.2250     3.3590 hc         1 1JE       0.021700
     38 H17         -5.6700    -0.0310     3.2110 hc         1 1JE       0.021700
@<TRIPOS>BOND
     1     1     2 ar  
     2     1     6 ar  
     3     1     7 1   
     4     2     3 ar  
     5     2    14 1   
     6     3     4 ar  
     7     3    23 1   
     8     4     5 ar  
     9     4    24 1   
    10     5     6 ar  
    11     5    15 1   
    12     6     9 1   
    13     7     8 1   
    14     7    25 1   
    15     8     9 2   
    16     8    10 1   
    17     9    13 1   
    18    10    11 1   
    19    10    16 1   
    20    10    20 1   
    21    11    12 1   
    22    12    13 1   
    23    12    26 1   
    24    12    27 1   
    25    13    28 1   
    26    13    29 1   
    27    16    17 1   
    28    16    30 1   
    29    16    31 1   
    30    17    18 1   
    31    17    19 1   
    32    20    21 1   
    33    20    32 1   
    34    20    33 1   
    35    21    22 1   
    36    21    34 1   
    37    21    35 1   
    38    22    36 1   
    39    22    37 1   
    40    22    38 1   
@<TRIPOS>SUBSTRUCTURE
     1 1JE         1 TEMP              0 ****  ****    0 ROOT
