@<TRIPOS>MOLECULE
1JF
   29    30     1     0     0
SMALL
bcc


@<TRIPOS>ATOM
      1 C1          -0.8370    -1.0670    -0.6120 ca         1 1JF      -0.232500
      2 C2          -0.9190    -1.6410     0.6530 ca         1 1JF       0.119400
      3 C3          -2.0190    -1.4050     1.4590 ca         1 1JF      -0.146000
      4 C4          -3.0480    -0.5940     1.0060 ca         1 1JF       0.057400
      5 C5          -2.9750    -0.0180    -0.2560 ca         1 1JF      -0.003600
      6 C6          -1.8720    -0.2610    -1.0570 ca         1 1JF      -0.022000
      7 S7           0.5660    -1.3420    -1.7050 sy         1 1JF       1.171000
      8 O8           0.6880    -2.7820    -1.8850 o          1 1JF      -0.611200
      9 O9           0.2740    -0.5600    -2.9080 o          1 1JF      -0.654800
     10 N10          1.8430    -0.8530    -0.9060 ne         1 1JF      -0.684900
     11 C11          2.0400     0.4210    -0.4410 ca         1 1JF       0.341400
     12 C12          3.0770     0.6010     0.5120 ca         1 1JF      -0.251600
     13 C13          3.3280     1.8690     1.0280 ca         1 1JF      -0.038000
     14 C14          2.5910     2.9760     0.6520 ca         1 1JF      -0.223000
     15 C15          1.5830     2.7860    -0.2810 ca         1 1JF       0.098400
     16 C16          1.3040     1.5530    -0.8330 ca         1 1JF      -0.258000
     17 CL1          0.3230    -2.6550     1.2770 cl         1 1JF      -0.057400
     18 CL2         -4.4000    -0.3140     2.0220 cl         1 1JF      -0.098400
     19 CL3         -4.2360     0.9920    -0.8370 cl         1 1JF      -0.097400
     20 C20          3.9230    -0.5210     1.0180 c          1 1JF       0.685700
     21 O21          4.8100    -0.3440     1.8270 o          1 1JF      -0.587000
     22 O22          3.6720    -1.7250     0.5570 oh         1 1JF      -0.634100
     23 CL4          0.6400     4.1500    -0.7870 cl         1 1JF      -0.154400
     24 H1          -2.0800    -1.8530     2.4410 ha         1 1JF       0.153000
     25 H2          -1.8220     0.1890    -2.0390 ha         1 1JF       0.178000
     26 H3           2.8980    -1.6670    -0.0980 ho         1 1JF       0.521000
     27 H4           4.1210     1.9910     1.7530 ha         1 1JF       0.141000
     28 H5           2.7940     3.9510     1.0710 ha         1 1JF       0.132000
     29 H6           0.5340     1.4780    -1.5860 ha         1 1JF       0.156000
@<TRIPOS>BOND
     1     1     2 ar  
     2     1     6 ar  
     3     1     7 1   
     4     2     3 ar  
     5     2    17 1   
     6     3     4 ar  
     7     3    24 1   
     8     4     5 ar  
     9     4    18 1   
    10     5     6 ar  
    11     5    19 1   
    12     6    25 1   
    13     7     8 1   
    14     7     9 2   
    15     7    10 2   
    16    10    11 1   
    17    11    12 ar  
    18    11    16 ar  
    19    12    13 ar  
    20    12    20 1   
    21    13    14 ar  
    22    13    27 1   
    23    14    15 ar  
    24    14    28 1   
    25    15    16 ar  
    26    15    23 1   
    27    16    29 1   
    28    20    21 2   
    29    20    22 1   
    30    22    26 1   
@<TRIPOS>SUBSTRUCTURE
     1 1JF         1 TEMP              0 ****  ****    0 ROOT
