@<TRIPOS>MOLECULE
1JF
   29    30     1     0     0
SMALL
No Charge or Current Charge


@<TRIPOS>ATOM
      1 C1          -0.5900    -1.0570    -0.6720 ca         1 1JF      -0.232500
      2 C2          -0.5200    -1.3200     0.7180 ca         1 1JF       0.211000
      3 C3          -1.4750    -0.7630     1.5840 ca         1 1JF      -0.128000
      4 C4          -2.5010     0.0550     1.0900 ca         1 1JF       0.149000
      5 C5          -2.5830     0.3180    -0.2890 ca         1 1JF       0.088000
      6 C6          -1.6350    -0.2380    -1.1630 ca         1 1JF      -0.004000
      7 S7           0.6350    -1.6890    -1.8450 sy         1 1JF       1.100200
      8 O8           0.9740    -3.0640    -1.4650 o          1 1JF      -0.611200
      9 O9           0.1570    -1.3840    -3.1980 o          1 1JF      -0.584000
     10 N10          1.9730    -0.7440    -1.5520 ne         1 1JF      -0.684900
     11 C11          1.9590     0.3480    -0.6730 ca         1 1JF       0.341400
     12 C12          2.7530     0.3630     0.5000 ca         1 1JF      -0.251600
     13 C13          2.6510     1.4720     1.3720 ca         1 1JF      -0.020000
     14 C14          1.8010     2.5470     1.0680 ca         1 1JF      -0.205000
     15 C15          1.0620     2.5390    -0.1180 ca         1 1JF       0.190000
     16 C16          1.1540     1.4520    -0.9910 ca         1 1JF      -0.240000
     17 Cl1          0.7390    -2.3090     1.4580 cl         1 1JF      -0.149000
     18 Cl2         -3.6680     0.7400     2.2210 cl         1 1JF      -0.190000
     19 Cl3         -3.8550     1.3490    -0.9480 cl         1 1JF      -0.189000
     20 C20          3.7190    -0.7370     0.8620 c          1 1JF       0.646700
     21 O21          4.3510    -0.7620     1.9050 o          1 1JF      -0.548000
     22 O22          3.9720    -1.6480    -0.0870 oh         1 1JF      -0.668100
     23 Cl4          0.0080     3.8890    -0.5090 cl         1 1JF      -0.246000
     24 H1          -1.4140    -0.9610     2.6500 ha         1 1JF       0.135000
     25 H2          -1.7140    -0.0110    -2.2240 ha         1 1JF       0.160000
     26 H3           3.2990    -1.3930    -0.7730 ho         1 1JF       0.555000
     27 H4           3.2370     1.5100     2.2890 ha         1 1JF       0.123000
     28 H5           1.7290     3.3930     1.7470 ha         1 1JF       0.114000
     29 H6           0.5810     1.4600    -1.9120 ha         1 1JF       0.138000
@<TRIPOS>BOND
     1     1     2 ar  
     2     1     6 ar  
     3     1     7 1   
     4     2     3 ar  
     5     2    17 1   
     6     3     4 ar  
     7     3    24 1   
     8     4     5 ar  
     9     4    18 1   
    10     5     6 ar  
    11     5    19 1   
    12     6    25 1   
    13     7     8 1   
    14     7     9 2   
    15     7    10 2   
    16    10    11 1   
    17    11    12 ar  
    18    11    16 ar  
    19    12    13 ar  
    20    12    20 1   
    21    13    14 ar  
    22    13    27 1   
    23    14    15 ar  
    24    14    28 1   
    25    15    16 ar  
    26    15    23 1   
    27    16    29 1   
    28    20    21 2   
    29    20    22 1   
    30    22    26 1   
@<TRIPOS>SUBSTRUCTURE
     1 1JF         1 TEMP              0 ****  ****    0 ROOT
