@<TRIPOS>MOLECULE
1JG
   26    27     1     0     0
SMALL
bcc


@<TRIPOS>ATOM
      1 BR1          3.8060     0.7480     0.7730 br         1 1JG      -0.065100
      2 S2           1.4410     0.0480    -1.0890 ss         1 1JG       0.087200
      3 C3           2.4110    -0.3630     0.2610 cc         1 1JG      -0.029000
      4 C4           2.0430    -1.5370     0.8500 cd         1 1JG      -0.133000
      5 C5           0.9370    -2.1250     0.1920 cd         1 1JG      -0.006000
      6 C6           0.5210    -1.3830    -0.8730 cc         1 1JG      -0.302600
      7 S7          -0.8740    -1.6830    -1.8890 sy         1 1JG       1.311200
      8 O8          -0.7650    -0.7410    -2.9900 o          1 1JG      -0.632800
      9 O9          -0.9670    -3.1070    -2.1510 o          1 1JG      -0.632800
     10 N10         -2.1860    -1.3180    -0.9670 nu         1 1JG      -0.698500
     11 C11         -2.2240    -0.0820    -0.2860 ca         1 1JG       0.133600
     12 C12         -2.3120    -0.0950     1.1150 ca         1 1JG      -0.173600
     13 C13         -2.3750     1.1270     1.7770 ca         1 1JG      -0.080000
     14 C14         -2.3420     2.3330     1.0980 ca         1 1JG      -0.161000
     15 C15         -2.2570     2.3090    -0.2840 ca         1 1JG       0.035400
     16 C16         -2.2070     1.1200    -0.9880 ca         1 1JG      -0.162000
     17 C17         -2.3550    -1.3830     1.9250 c          1 1JG       0.930200
     18 O18         -2.3260    -1.2870     3.1540 o          1 1JG      -0.789800
     19 O19         -2.4270    -2.4640     1.2720 o          1 1JG      -0.789800
     20 CL1         -2.2280     3.8030    -1.1610 cl         1 1JG      -0.152400
     21 H1           2.5370    -1.9640     1.7100 ha         1 1JG       0.159000
     22 H2           0.4760    -3.0520     0.5020 ha         1 1JG       0.183000
     23 H3          -2.3410    -2.0620    -0.2170 hn         1 1JG       0.521800
     24 H4          -2.4420     1.1330     2.8560 ha         1 1JG       0.154000
     25 H5          -2.3880     3.2690     1.6360 ha         1 1JG       0.130000
     26 H6          -2.1740     1.1260    -2.0670 ha         1 1JG       0.164000
@<TRIPOS>BOND
     1     1     3 1   
     2     2     3 1   
     3     2     6 1   
     4     3     4 2   
     5     4     5 1   
     6     4    21 1   
     7     5     6 2   
     8     5    22 1   
     9     6     7 1   
    10     7     8 2   
    11     7     9 2   
    12     7    10 1   
    13    10    11 1   
    14    10    23 1   
    15    11    12 ar  
    16    11    16 ar  
    17    12    13 ar  
    18    12    17 1   
    19    13    14 ar  
    20    13    24 1   
    21    14    15 ar  
    22    14    25 1   
    23    15    16 ar  
    24    15    20 1   
    25    16    26 1   
    26    17    18 1   
    27    17    19 1   
@<TRIPOS>SUBSTRUCTURE
     1 1JG         1 TEMP              0 ****  ****    0 ROOT
