@<TRIPOS>MOLECULE
1JG
   26    27     1     0     0
SMALL
No Charge or Current Charge


@<TRIPOS>ATOM
      1 Br1          3.8360     1.1240     0.3030 br         1 1JG      -0.065100
      2 S2           1.4120     0.0720    -1.4860 ss         1 1JG       0.377000
      3 C3           2.4220    -0.0710    -0.0480 cc         1 1JG      -0.173900
      4 C4           2.0410    -1.1290     0.7380 cd         1 1JG      -0.115000
      5 C5           0.9290    -1.8410     0.2110 cd         1 1JG       0.012000
      6 C6           0.4740    -1.3160    -0.9750 cc         1 1JG      -0.447500
      7 S7          -0.9010    -1.8820    -1.9220 sy         1 1JG       1.169600
      8 O8          -0.9850    -1.1710    -3.1990 o          1 1JG      -0.562000
      9 O9          -1.0360    -3.3310    -1.7880 o          1 1JG      -0.562000
     10 N10         -2.1740    -1.3160    -1.0140 nu         1 1JG      -0.892100
     11 C11         -2.1800    -0.1720    -0.2320 ca         1 1JG       0.272000
     12 C12         -2.4770    -0.2290     1.1560 ca         1 1JG      -0.173600
     13 C13         -2.4510     0.9780     1.9000 ca         1 1JG      -0.062000
     14 C14         -2.1470     2.2010     1.2820 ca         1 1JG      -0.143000
     15 C15         -1.8720     2.2420    -0.0890 ca         1 1JG       0.127000
     16 C16         -1.8950     1.0630    -0.8410 ca         1 1JG      -0.144000
     17 C17         -2.8120    -1.5290     1.8710 c          1 1JG       0.719600
     18 O18         -3.2280    -1.4660     3.0180 o          1 1JG      -0.684500
     19 O19         -2.6610    -2.5920     1.2820 o          1 1JG      -0.684500
     20 Cl1         -1.4950     3.7720    -0.8660 cl         1 1JG      -0.244000
     21 H1           2.5320    -1.3920     1.6700 ha         1 1JG       0.141000
     22 H2           0.4840    -2.7030     0.7030 ha         1 1JG       0.165000
     23 H3          -2.3500    -2.1440    -0.4420 hn         1 1JG       0.577000
     24 H4          -2.6650     0.9740     2.9670 ha         1 1JG       0.136000
     25 H5          -2.1280     3.1170     1.8670 ha         1 1JG       0.112000
     26 H6          -1.6910     1.1110    -1.9060 ha         1 1JG       0.146000
@<TRIPOS>BOND
     1     1     3 1   
     2     2     3 1   
     3     2     6 1   
     4     3     4 2   
     5     4     5 1   
     6     4    21 1   
     7     5     6 2   
     8     5    22 1   
     9     6     7 1   
    10     7     8 2   
    11     7     9 2   
    12     7    10 1   
    13    10    11 1   
    14    10    23 1   
    15    11    12 ar  
    16    11    16 ar  
    17    12    13 ar  
    18    12    17 1   
    19    13    14 ar  
    20    13    24 1   
    21    14    15 ar  
    22    14    25 1   
    23    15    16 ar  
    24    15    20 1   
    25    16    26 1   
    26    17    18 1   
    27    17    19 1   
@<TRIPOS>SUBSTRUCTURE
     1 1JG         1 TEMP              0 ****  ****    0 ROOT
