@<TRIPOS>MOLECULE
1JH
   43    45     1     0     0
SMALL
No Charge or Current Charge


@<TRIPOS>ATOM
      1 C1          -2.9630    -1.0500     1.0660 ca         1 1JH      -0.001000
      2 C2          -2.4460    -2.2790     1.5130 ca         1 1JH      -0.137500
      3 C3          -1.7310    -3.1150     0.6350 ca         1 1JH      -0.034300
      4 C4          -1.5360    -2.7100    -0.6980 ca         1 1JH      -0.137500
      5 C5          -2.0510    -1.4840    -1.1530 ca         1 1JH      -0.001000
      6 C6          -2.7690    -0.6520    -0.2710 ca         1 1JH      -0.297500
      7 S7          -3.3660     0.9450    -0.8340 sy         1 1JH       1.120600
      8 O8          -3.4470     0.9890    -2.2960 o          1 1JH      -0.562500
      9 O9          -4.4520     1.4100     0.0310 o          1 1JH      -0.562500
     10 N10         -2.1310     1.9960    -0.4470 nu         1 1JH      -0.863100
     11 C11         -0.7830     1.7290    -0.6150 ca         1 1JH       0.257000
     12 C12          0.0810     1.5900     0.5040 ca         1 1JH      -0.165600
     13 C13          1.4390     1.2570     0.2670 ca         1 1JH      -0.074000
     14 C14          1.9220     1.0700    -1.0410 ca         1 1JH       0.043100
     15 C15          1.0680     1.2450    -2.1360 ca         1 1JH      -0.117000
     16 C16         -0.2790     1.5700    -1.9200 ca         1 1JH      -0.139000
     17 C17         -0.3990     1.7560     1.9390 c          1 1JH       0.718600
     18 O18         -1.5270     2.1840     2.1470 o          1 1JH      -0.690500
     19 O19          0.3710     1.4680     2.8430 o          1 1JH      -0.690500
     20 O20          3.2350     0.7290    -1.2640 os         1 1JH      -0.254200
     21 C21          3.8670    -0.2790    -0.5680 ca         1 1JH       0.152100
     22 C22          5.2470    -0.1760    -0.3290 ca         1 1JH      -0.162500
     23 C23          5.9220    -1.1930     0.3690 ca         1 1JH      -0.084500
     24 C24          5.2140    -2.3200     0.8210 ca         1 1JH      -0.160000
     25 C25          3.8350    -2.4340     0.5740 ca         1 1JH      -0.084500
     26 C26          3.1610    -1.4160    -0.1240 ca         1 1JH      -0.162500
     27 C28         -1.1620    -4.4370     1.1240 c3         1 1JH      -0.051800
     28 H1          -3.5010    -0.4110     1.7640 ha         1 1JH       0.140000
     29 H2          -2.5960    -2.5770     2.5480 ha         1 1JH       0.107500
     30 H3          -0.9780    -3.3430    -1.3840 ha         1 1JH       0.107500
     31 H4          -1.8780    -1.1810    -2.1850 ha         1 1JH       0.140000
     32 H5          -2.3440     2.1750     0.5350 hn         1 1JH       0.565000
     33 H6           2.1270     1.1360     1.1000 ha         1 1JH       0.148000
     34 H7           1.4440     1.1150    -3.1480 ha         1 1JH       0.112000
     35 H8          -0.9380     1.6950    -2.7740 ha         1 1JH       0.133000
     36 H10          5.7930     0.6960    -0.6810 ha         1 1JH       0.131000
     37 H11          6.9900    -1.1090     0.5570 ha         1 1JH       0.102500
     38 H12          5.7350    -3.1080     1.3600 ha         1 1JH       0.102000
     39 H13          3.2890    -3.3100     0.9190 ha         1 1JH       0.102500
     40 H14          2.0970    -1.5160    -0.3210 ha         1 1JH       0.131000
     41 H15         -0.1270    -4.3130     1.4660 hc         1 1JH       0.040367
     42 H16         -1.7450    -4.8400     1.9600 hc         1 1JH       0.040367
     43 H17         -1.1640    -5.1910     0.3280 hc         1 1JH       0.040367
@<TRIPOS>BOND
     1     1     2 ar  
     2     1     6 ar  
     3     1    28 1   
     4     2     3 ar  
     5     2    29 1   
     6     3     4 ar  
     7     3    27 1   
     8     4     5 ar  
     9     4    30 1   
    10     5     6 ar  
    11     5    31 1   
    12     6     7 1   
    13     7     8 2   
    14     7     9 2   
    15     7    10 1   
    16    10    11 1   
    17    10    32 1   
    18    11    12 ar  
    19    11    16 ar  
    20    12    13 ar  
    21    12    17 1   
    22    13    14 ar  
    23    13    33 1   
    24    14    15 ar  
    25    14    20 1   
    26    15    16 ar  
    27    15    34 1   
    28    16    35 1   
    29    17    18 1   
    30    17    19 1   
    31    20    21 1   
    32    21    22 ar  
    33    21    26 ar  
    34    22    23 ar  
    35    22    36 1   
    36    23    24 ar  
    37    23    37 1   
    38    24    25 ar  
    39    24    38 1   
    40    25    26 ar  
    41    25    39 1   
    42    26    40 1   
    43    27    41 1   
    44    27    42 1   
    45    27    43 1   
@<TRIPOS>SUBSTRUCTURE
     1 1JH         1 TEMP              0 ****  ****    0 ROOT
