@<TRIPOS>MOLECULE
1JH
   43    45     1     0     0
SMALL
abcg2


@<TRIPOS>ATOM
      1 C1          -2.7170    -0.9930     0.9350 ca         1 1JH      -0.001000
      2 C2          -2.0680    -2.0340     1.5770 ca         1 1JH      -0.137500
      3 C3          -1.1510    -2.8390     0.9010 ca         1 1JH      -0.034300
      4 C4          -0.9150    -2.5860    -0.4490 ca         1 1JH      -0.137500
      5 C5          -1.5530    -1.5470    -1.1070 ca         1 1JH      -0.001000
      6 C6          -2.4540    -0.7570    -0.4070 ca         1 1JH      -0.297500
      7 S7          -3.1710     0.6650    -1.1790 sy         1 1JH       1.120600
      8 O8          -2.9710     0.5480    -2.6150 o          1 1JH      -0.562500
      9 O9          -4.5180     0.8730    -0.6710 o          1 1JH      -0.562500
     10 N10         -2.2780     1.9440    -0.6070 nu         1 1JH      -0.863100
     11 C11         -0.8730     1.7680    -0.5870 ca         1 1JH       0.257000
     12 C12         -0.2090     1.6990     0.6480 ca         1 1JH      -0.165600
     13 C13          1.1580     1.4530     0.6500 ca         1 1JH      -0.074000
     14 C14          1.8470     1.2740    -0.5350 ca         1 1JH       0.043100
     15 C15          1.1990     1.3810    -1.7540 ca         1 1JH      -0.117000
     16 C16         -0.1600     1.6430    -1.7750 ca         1 1JH      -0.139000
     17 C17         -0.9200     1.8870     1.9840 c          1 1JH       0.718600
     18 O18         -2.1350     2.2220     1.9400 o          1 1JH      -0.690500
     19 O19         -0.2560     1.7150     3.0100 o          1 1JH      -0.690500
     20 O20          3.1940     0.9990    -0.5060 os         1 1JH      -0.254200
     21 C21          3.5820    -0.2990    -0.3480 ca         1 1JH       0.152100
     22 C22          4.9530    -0.5230    -0.2550 ca         1 1JH      -0.162500
     23 C23          5.4290    -1.8140    -0.1010 ca         1 1JH      -0.084500
     24 C24          4.5520    -2.8910    -0.0360 ca         1 1JH      -0.160000
     25 C25          3.1890    -2.6560    -0.1290 ca         1 1JH      -0.084500
     26 C26          2.6930    -1.3670    -0.2840 ca         1 1JH      -0.162500
     27 C28         -0.4150    -3.9310     1.6150 c3         1 1JH      -0.051800
     28 H1          -3.4160    -0.3780     1.4860 ha         1 1JH       0.140000
     29 H2          -2.2750    -2.2200     2.6230 ha         1 1JH       0.107500
     30 H3          -0.2210    -3.2090    -1.0000 ha         1 1JH       0.107500
     31 H4          -1.3450    -1.3630    -2.1510 ha         1 1JH       0.140000
     32 H5          -2.5540     2.1630     0.3860 hn         1 1JH       0.565000
     33 H6           1.6820     1.3790     1.5950 ha         1 1JH       0.148000
     34 H7           1.7480     1.2600    -2.6790 ha         1 1JH       0.112000
     35 H8          -0.6700     1.7400    -2.7230 ha         1 1JH       0.133000
     36 H10          5.6380     0.3140    -0.3050 ha         1 1JH       0.131000
     37 H11          6.4970    -1.9780    -0.0300 ha         1 1JH       0.102500
     38 H12          4.9280    -3.8980     0.0860 ha         1 1JH       0.102000
     39 H13          2.4920    -3.4830    -0.0850 ha         1 1JH       0.102500
     40 H14          1.6230    -1.2140    -0.3520 ha         1 1JH       0.131000
     41 H15          0.5730    -3.5840     1.9240 hc         1 1JH       0.040367
     42 H16         -0.9420    -4.2500     2.5130 hc         1 1JH       0.040367
     43 H17         -0.2670    -4.8010     0.9760 hc         1 1JH       0.040367
@<TRIPOS>BOND
     1     1     2 ar  
     2     1     6 ar  
     3     1    28 1   
     4     2     3 ar  
     5     2    29 1   
     6     3     4 ar  
     7     3    27 1   
     8     4     5 ar  
     9     4    30 1   
    10     5     6 ar  
    11     5    31 1   
    12     6     7 1   
    13     7     8 2   
    14     7     9 2   
    15     7    10 1   
    16    10    11 1   
    17    10    32 1   
    18    11    12 ar  
    19    11    16 ar  
    20    12    13 ar  
    21    12    17 1   
    22    13    14 ar  
    23    13    33 1   
    24    14    15 ar  
    25    14    20 1   
    26    15    16 ar  
    27    15    34 1   
    28    16    35 1   
    29    17    18 1   
    30    17    19 1   
    31    20    21 1   
    32    21    22 ar  
    33    21    26 ar  
    34    22    23 ar  
    35    22    36 1   
    36    23    24 ar  
    37    23    37 1   
    38    24    25 ar  
    39    24    38 1   
    40    25    26 ar  
    41    25    39 1   
    42    26    40 1   
    43    27    41 1   
    44    27    42 1   
    45    27    43 1   
@<TRIPOS>SUBSTRUCTURE
     1 1JH         1 TEMP              0 ****  ****    0 ROOT
