@<TRIPOS>MOLECULE
1JI
   55    59     1     0     0
SMALL
abcg2


@<TRIPOS>ATOM
      1 C10         24.1780    -3.6640    -0.8250 c          1 1JI       0.609700
      2 C13         16.9250     1.8910     0.0420 ca         1 1JI      -0.098800
      3 C16         19.2410     2.1100    -1.4170 ca         1 1JI       0.286900
      4 C17         19.1520     1.1590    -0.3850 ca         1 1JI       0.055100
      5 C18         17.9820     1.0430     0.3580 ca         1 1JI      -0.064000
      6 C19         15.5940     2.1100     0.5230 cc         1 1JI      -0.242200
      7 C20         15.0620     3.1220    -0.2340 cd         1 1JI      -0.139100
      8 C22         25.9190    -5.3710    -1.1640 c5         1 1JI       0.086700
      9 C23         27.1630    -5.8490    -0.4160 c5         1 1JI       0.132800
     10 C25         27.8780    -4.4870    -2.2550 c5         1 1JI       0.148800
     11 C26         26.4900    -5.0760    -2.5790 c5         1 1JI      -0.050400
     12 C27         26.5050    -6.3290    -3.4250 ca         1 1JI      -0.082300
     13 C28         25.3890    -6.6350    -4.2090 ca         1 1JI      -0.103000
     14 C1          22.9310    -0.1540     1.2660 ca         1 1JI       0.164000
     15 C2          22.4230    -0.4170    -0.0090 ca         1 1JI      -0.091300
     16 C3          22.8540    -1.5720    -0.6500 ca         1 1JI      -0.032000
     17 C4          23.7760    -2.4380    -0.0640 ca         1 1JI      -0.152600
     18 C5          24.2620    -2.1460     1.2100 ca         1 1JI      -0.072000
     19 C6          23.8380    -1.0060     1.8790 ca         1 1JI      -0.117000
     20 O8          20.1670     0.3030    -0.0560 os         1 1JI      -0.343100
     21 CL9         22.4290     1.2790     2.1320 cl         1 1JI      -0.190000
     22 O11         23.4270    -4.1730    -1.6620 o          1 1JI      -0.599100
     23 N12         25.3910    -4.1710    -0.5350 ns         1 1JI      -0.503900
     24 C14         17.1340     2.8170    -1.0210 ca         1 1JI       0.342500
     25 N15         18.2400     2.9390    -1.7380 nb         1 1JI      -0.657000
     26 N21         15.9820     3.5520    -1.1630 na         1 1JI      -0.338400
     27 N24         28.2880    -5.0530    -0.9430 n7         1 1JI      -0.860400
     28 C29         25.3400    -7.8010    -4.9640 ca         1 1JI      -0.113500
     29 C30         26.4120    -8.6890    -4.9470 ca         1 1JI      -0.108000
     30 C31         27.5300    -8.3950    -4.1730 ca         1 1JI      -0.113500
     31 C32         27.5750    -7.2250    -3.4200 ca         1 1JI      -0.103000
     32 H40         17.9190     0.3100     1.1530 ha         1 1JI       0.137000
     33 H41         15.0960     1.5880     1.3230 ha         1 1JI       0.209000
     34 H42         14.0870     3.5770    -0.1860 h4         1 1JI       0.215000
     35 H44         25.1290    -6.1190    -1.2000 h1         1 1JI       0.095700
     36 H45         27.0750    -5.7330     0.6640 h1         1 1JI       0.063200
     37 H46         27.3150    -6.9090    -0.6280 h1         1 1JI       0.063200
     38 H49         27.8140    -3.3990    -2.1950 h1         1 1JI       0.050200
     39 H48         28.6000    -4.7340    -3.0340 h1         1 1JI       0.050200
     40 H50         25.8610    -4.3360    -3.0710 hc         1 1JI       0.078700
     41 H51         24.5510    -5.9470    -4.2250 ha         1 1JI       0.123500
     42 H33         22.4700    -1.8040    -1.6340 ha         1 1JI       0.142000
     43 H34         24.9540    -2.8120     1.7080 ha         1 1JI       0.117000
     44 H35         24.2060    -0.7820     2.8700 ha         1 1JI       0.135000
     45 H38         26.0010    -3.6520     0.0770 hn         1 1JI       0.311500
     46 H43         15.8360     4.2820    -1.8410 hn         1 1JI       0.361000
     47 H47         28.5020    -4.3010    -0.3020 hn         1 1JI       0.400000
     48 H52         24.4660    -8.0150    -5.5670 ha         1 1JI       0.113000
     49 H53         26.3780    -9.5980    -5.5350 ha         1 1JI       0.112000
     50 H54         28.3710    -9.0780    -4.1540 ha         1 1JI       0.113000
     51 H55         28.4550    -7.0150    -2.8250 ha         1 1JI       0.123500
     52 C7          21.4420     0.4950    -0.6810 c3         1 1JI       0.212900
     53 H39         20.1430     2.2030    -2.0070 h4         1 1JI       0.020100
     54 H36         21.7490     1.5380    -0.5750 h1         1 1JI       0.049700
     55 H37         21.3780     0.2540    -1.7440 h1         1 1JI       0.049700
@<TRIPOS>BOND
     1     1    17 1   
     2     1    22 2   
     3     1    23 1   
     4     2     5 ar  
     5     2     6 1   
     6     2    24 ar  
     7     3     4 ar  
     8     3    25 ar  
     9     3    53 1   
    10     4     5 ar  
    11     4    20 1   
    12     5    32 1   
    13     6     7 2   
    14     6    33 1   
    15     7    26 1   
    16     7    34 1   
    17     8     9 1   
    18     8    11 1   
    19     8    23 1   
    20     8    35 1   
    21     9    27 1   
    22     9    36 1   
    23     9    37 1   
    24    10    11 1   
    25    10    27 1   
    26    10    38 1   
    27    10    39 1   
    28    11    12 1   
    29    11    40 1   
    30    12    13 ar  
    31    12    31 ar  
    32    13    28 ar  
    33    13    41 1   
    34    14    15 ar  
    35    14    19 ar  
    36    14    21 1   
    37    15    16 ar  
    38    15    52 1   
    39    16    17 ar  
    40    16    42 1   
    41    17    18 ar  
    42    18    19 ar  
    43    18    43 1   
    44    19    44 1   
    45    20    52 1   
    46    23    45 1   
    47    24    25 ar  
    48    24    26 1   
    49    26    46 1   
    50    27    47 1   
    51    28    29 ar  
    52    28    48 1   
    53    29    30 ar  
    54    29    49 1   
    55    30    31 ar  
    56    30    50 1   
    57    31    51 1   
    58    52    54 1   
    59    52    55 1   
@<TRIPOS>SUBSTRUCTURE
     1 1JI         1 TEMP              0 ****  ****    0 ROOT
