@<TRIPOS>MOLECULE
1JI
   55    59     1     0     0
SMALL
No Charge or Current Charge


@<TRIPOS>ATOM
      1 C10         24.4780    -3.5180    -0.8660 c          1 1JI       0.609700
      2 C13         16.9290     1.4190     0.1250 ca         1 1JI      -0.098800
      3 C16         18.9100     1.7430    -1.6940 ca         1 1JI       0.286900
      4 C17         19.1960     1.0110    -0.5030 ca         1 1JI       0.055100
      5 C18         18.1660     0.8440     0.4410 ca         1 1JI      -0.064000
      6 C19         15.7080     1.4210     0.8700 cc         1 1JI      -0.242200
      7 C20         14.7840     2.1270     0.1180 cd         1 1JI      -0.139100
      8 C22         25.9410    -5.4940    -0.7400 c5         1 1JI       0.086700
      9 C23         26.8220    -6.0850     0.4100 c5         1 1JI       0.132800
     10 C25         28.2520    -5.9870    -1.4030 c5         1 1JI       0.148800
     11 C26         26.9620    -5.2800    -1.9160 c5         1 1JI      -0.050400
     12 C27         26.4580    -6.0270    -3.1610 ca         1 1JI      -0.082300
     13 C28         26.3520    -5.3350    -4.3850 ca         1 1JI      -0.103000
     14 C1          23.5560     0.5300     0.4320 ca         1 1JI       0.164000
     15 C2          22.7500    -0.1080    -0.5330 ca         1 1JI      -0.091300
     16 C3          23.0670    -1.4220    -0.9360 ca         1 1JI      -0.032000
     17 C4          24.1800    -2.1070    -0.3960 ca         1 1JI      -0.152600
     18 C5          24.9780    -1.4460     0.5680 ca         1 1JI      -0.072000
     19 C6          24.6620    -0.1390     0.9750 ca         1 1JI      -0.117000
     20 O8          20.4340     0.4600    -0.2310 os         1 1JI      -0.343100
     21 Cl9         23.2050     2.1690     0.9850 cl         1 1JI      -0.190000
     22 O11         23.7820    -4.0780    -1.7020 o          1 1JI      -0.599100
     23 N12         25.5770    -4.1340    -0.2930 ns         1 1JI      -0.503900
     24 C14         16.7250     2.1140    -1.0470 ca         1 1JI       0.342500
     25 N15         17.6930     2.2890    -1.9680 nb         1 1JI      -0.657000
     26 N21         15.4170     2.5590    -1.0770 na         1 1JI      -0.338400
     27 N24         28.2190    -5.7210     0.0520 n7         1 1JI      -0.860400
     28 C29         25.8950    -5.9870    -5.5440 ca         1 1JI      -0.113500
     29 C30         25.5380    -7.3440    -5.4930 ca         1 1JI      -0.108000
     30 C31         25.6380    -8.0460    -4.2820 ca         1 1JI      -0.113500
     31 C32         26.0940    -7.3940    -3.1240 ca         1 1JI      -0.103000
     32 H40         18.3250     0.2960     1.3660 ha         1 1JI       0.137000
     33 H41         15.5220     0.9620     1.8410 ha         1 1JI       0.209000
     34 H42         13.7410     2.3520     0.3370 h4         1 1JI       0.215000
     35 H44         25.0770    -6.1320    -0.9770 h1         1 1JI       0.095700
     36 H45         26.5350    -5.7140     1.4050 h1         1 1JI       0.063200
     37 H46         26.7150    -7.1790     0.4330 h1         1 1JI       0.063200
     38 H49         29.1580    -5.5810    -1.8750 h1         1 1JI       0.050200
     39 H48         28.2390    -7.0700    -1.5900 h1         1 1JI       0.050200
     40 H50         27.1620    -4.2210    -2.1170 hc         1 1JI       0.078700
     41 H51         26.6230    -4.2830    -4.4410 ha         1 1JI       0.123500
     42 H33         22.4380    -1.9120    -1.6770 ha         1 1JI       0.142000
     43 H34         25.8440    -1.9260     1.0150 ha         1 1JI       0.117000
     44 H35         25.2800     0.3600     1.7180 ha         1 1JI       0.135000
     45 H38         26.0970    -3.6110     0.3990 hn         1 1JI       0.311500
     46 H43         15.0010     3.0980    -1.8270 hn         1 1JI       0.361000
     47 H47         28.3420    -4.7120     0.1950 hn         1 1JI       0.400000
     48 H52         25.8180    -5.4400    -6.4810 ha         1 1JI       0.113000
     49 H53         25.1840    -7.8490    -6.3900 ha         1 1JI       0.112000
     50 H54         25.3610    -9.0970    -4.2400 ha         1 1JI       0.113000
     51 H55         26.1640    -7.9580    -2.1960 ha         1 1JI       0.123500
     52 C7          21.5400     0.5910    -1.1410 c3         1 1JI       0.212900
     53 H39         19.6710     1.9020    -2.4560 h4         1 1JI       0.020100
     54 H36         21.7730     1.6470    -1.3260 h1         1 1JI       0.049700
     55 H37         21.2970     0.1300    -2.1080 h1         1 1JI       0.049700
@<TRIPOS>BOND
     1     1    17 1   
     2     1    22 2   
     3     1    23 1   
     4     2     5 ar  
     5     2     6 1   
     6     2    24 ar  
     7     3     4 ar  
     8     3    25 ar  
     9     3    53 1   
    10     4     5 ar  
    11     4    20 1   
    12     5    32 1   
    13     6     7 2   
    14     6    33 1   
    15     7    26 1   
    16     7    34 1   
    17     8     9 1   
    18     8    11 1   
    19     8    23 1   
    20     8    35 1   
    21     9    27 1   
    22     9    36 1   
    23     9    37 1   
    24    10    11 1   
    25    10    27 1   
    26    10    38 1   
    27    10    39 1   
    28    11    12 1   
    29    11    40 1   
    30    12    13 ar  
    31    12    31 ar  
    32    13    28 ar  
    33    13    41 1   
    34    14    15 ar  
    35    14    19 ar  
    36    14    21 1   
    37    15    16 ar  
    38    15    52 1   
    39    16    17 ar  
    40    16    42 1   
    41    17    18 ar  
    42    18    19 ar  
    43    18    43 1   
    44    19    44 1   
    45    20    52 1   
    46    23    45 1   
    47    24    25 ar  
    48    24    26 1   
    49    26    46 1   
    50    27    47 1   
    51    28    29 ar  
    52    28    48 1   
    53    29    30 ar  
    54    29    49 1   
    55    30    31 ar  
    56    30    50 1   
    57    31    51 1   
    58    52    54 1   
    59    52    55 1   
@<TRIPOS>SUBSTRUCTURE
     1 1JI         1 TEMP              0 ****  ****    0 ROOT
