@<TRIPOS>MOLECULE
1JJ
   15    14     1     0     0
SMALL
bcc


@<TRIPOS>ATOM
      1 C1          -0.7790    -0.3060     0.3820 c3         1 1JJ      -0.023100
      2 C2          -1.7570     0.7540    -0.1100 c3         1 1JJ      -0.065400
      3 C3          -3.2130     0.4260     0.1940 c3         1 1JJ      -0.073100
      4 O1           1.0420    -0.5080    -1.4940 o          1 1JJ      -0.923167
      5 O2           1.1960     1.5830     0.0220 o          1 1JJ      -0.923167
      6 P1           1.0060     0.0670    -0.0560 p5         1 1JJ       1.124700
      7 O3          -1.0770    -1.5760    -0.1990 oh         1 1JJ      -0.672800
      8 O4           1.8750    -0.7230     0.9290 o          1 1JJ      -0.923167
      9 H1          -0.9010    -0.4040     1.4710 h1         1 1JJ       0.010700
     10 H2          -1.4880     1.7100     0.3450 hc         1 1JJ       0.033700
     11 H3          -1.6230     0.8870    -1.1890 hc         1 1JJ       0.033700
     12 H4          -3.5110    -0.5150    -0.2690 hc         1 1JJ      -0.009300
     13 H5          -3.3780     0.3310     1.2700 hc         1 1JJ      -0.009300
     14 H6          -3.8880     1.2020    -0.1740 hc         1 1JJ      -0.009300
     15 H8          -0.4840    -1.5820    -0.9740 ho         1 1JJ       0.428000
@<TRIPOS>BOND
     1     1     2 1   
     2     1     6 1   
     3     1     7 1   
     4     1     9 1   
     5     2     3 1   
     6     2    10 1   
     7     2    11 1   
     8     3    12 1   
     9     3    13 1   
    10     3    14 1   
    11     4     6 1   
    12     5     6 1   
    13     6     8 1   
    14     7    15 1   
@<TRIPOS>SUBSTRUCTURE
     1 1JJ         1 TEMP              0 ****  ****    0 ROOT
