@<TRIPOS>MOLECULE
1JJ
   15    14     1     0     0
SMALL
No Charge or Current Charge


@<TRIPOS>ATOM
      1 C1          -0.7810    -0.3810     0.3250 c3         1 1JJ      -0.157700
      2 C2          -1.7820     0.6820    -0.2130 c3         1 1JJ      -0.065400
      3 C3          -3.2460     0.4730     0.2350 c3         1 1JJ      -0.073100
      4 O1           1.3320    -0.1340    -1.4490 o          1 1JJ      -0.923167
      5 O2           1.2430     1.5660     0.3120 o          1 1JJ      -0.923167
      6 P1           1.0370     0.1230    -0.0080 p5         1 1JJ       1.282500
      7 O3          -1.1670    -1.6980    -0.1770 oh         1 1JJ      -0.735000
      8 O4           1.9350    -0.7150     0.8410 o          1 1JJ      -0.923167
      9 H1          -0.8630    -0.3780     1.4200 h1         1 1JJ       0.010700
     10 H2          -1.4680     1.6740     0.1310 hc         1 1JJ       0.033700
     11 H3          -1.7390     0.7060    -1.3090 hc         1 1JJ       0.033700
     12 H4          -3.6540    -0.4660    -0.1590 hc         1 1JJ      -0.009300
     13 H5          -3.3180     0.4530     1.3290 hc         1 1JJ      -0.009300
     14 H6          -3.8740     1.2930    -0.1320 hc         1 1JJ      -0.009300
     15 H8          -0.6360    -1.8520    -0.9960 ho         1 1JJ       0.467000
@<TRIPOS>BOND
     1     1     2 1   
     2     1     6 1   
     3     1     7 1   
     4     1     9 1   
     5     2     3 1   
     6     2    10 1   
     7     2    11 1   
     8     3    12 1   
     9     3    13 1   
    10     3    14 1   
    11     4     6 1   
    12     5     6 1   
    13     6     8 1   
    14     7    15 1   
@<TRIPOS>SUBSTRUCTURE
     1 1JJ         1 TEMP              0 ****  ****    0 ROOT
