@<TRIPOS>MOLECULE
1JK
   29    30     1     0     0
SMALL
No Charge or Current Charge


@<TRIPOS>ATOM
      1 OAC         -4.9640     0.8610     1.0100 o          1 1JK      -0.731000
      2 CAJ          5.4970     0.7790     0.0170 ca         1 1JK      -0.113000
      3 CAO          5.1180    -0.3730    -0.6880 ca         1 1JK      -0.123000
      4 CAP          4.5290     1.5180     0.7130 ca         1 1JK      -0.123000
      5 CAU          3.7740    -0.7860    -0.6970 ca         1 1JK      -0.085000
      6 CAV          3.1840     1.1080     0.7060 ca         1 1JK      -0.085000
      7 CBA          0.3130     0.1600     0.6430 cc         1 1JK      -0.286000
      8 CBC         -2.2250    -0.3810     0.7820 c3         1 1JK      -0.109700
      9 CBF         -2.7080     1.5240    -0.8900 c3         1 1JK      -0.066100
     10 NBG          0.9710    -1.5750    -0.6680 nd         1 1JK      -0.398300
     11 OBK         -0.4480    -1.6350    -0.4240 os         1 1JK      -0.062700
     12 CBN         -4.6330     0.1470     0.0750 c          1 1JK       0.722000
     13 CBS         -0.7910    -0.5710     0.3640 cd         1 1JK       0.229300
     14 CBT          2.7840    -0.0520     0.0000 ca         1 1JK      -0.113500
     15 CBU          1.3760    -0.4930    -0.0150 cc         1 1JK       0.319500
     16 CBV         -3.1470     0.1360    -0.3600 c3         1 1JK      -0.193700
     17 HAP          4.8200     2.4120     1.2610 ha         1 1JK       0.106000
     18 HAU          3.5100    -1.6830    -1.2530 ha         1 1JK       0.125000
     19 HAV          2.4620     1.7040     1.2560 ha         1 1JK       0.125000
     20 HBAA         0.3620     1.0590     1.2430 ha         1 1JK       0.145000
     21 HBC         -2.6180    -1.3370     1.1500 hc         1 1JK       0.071700
     22 HBCA        -2.2700     0.3130     1.6300 hc         1 1JK       0.071700
     23 HBF         -2.7200     2.2730    -0.0880 hc         1 1JK       0.017367
     24 HBFA        -1.6950     1.4840    -1.3070 hc         1 1JK       0.017367
     25 HBV         -3.0590    -0.5690    -1.1960 hc         1 1JK       0.042700
     26 OXT         -5.4130    -0.5720    -0.5320 o          1 1JK      -0.731000
     27 H2          -3.3850     1.8610    -1.6840 hc         1 1JK       0.017367
     28 HAJ          6.5370     1.0980     0.0230 ha         1 1JK       0.103000
     29 HAO          5.8660    -0.9480    -1.2300 ha         1 1JK       0.106000
@<TRIPOS>BOND
     1     1    12 1   
     2     2     3 ar  
     3     2     4 ar  
     4     2    28 1   
     5     3     5 ar  
     6     3    29 1   
     7     4     6 ar  
     8     4    17 1   
     9     5    14 ar  
    10     5    18 1   
    11     6    14 ar  
    12     6    19 1   
    13     7    13 2   
    14     7    15 1   
    15     7    20 1   
    16     8    13 1   
    17     8    16 1   
    18     8    21 1   
    19     8    22 1   
    20     9    16 1   
    21     9    23 1   
    22     9    24 1   
    23     9    27 1   
    24    10    11 1   
    25    10    15 2   
    26    11    13 1   
    27    12    16 1   
    28    12    26 1   
    29    14    15 1   
    30    16    25 1   
@<TRIPOS>SUBSTRUCTURE
     1 1JK         1 TEMP              0 ****  ****    0 ROOT
