@<TRIPOS>MOLECULE
1JK
   29    30     1     0     0
SMALL
abcg2


@<TRIPOS>ATOM
      1 OAC         -4.9230    -0.2380     1.1990 o          1 1JK      -0.731000
      2 CAJ          5.4900     0.7130    -0.0440 ca         1 1JK      -0.113000
      3 CAO          5.0400    -0.4180    -0.7160 ca         1 1JK      -0.123000
      4 CAP          4.5900     1.4910     0.6700 ca         1 1JK      -0.123000
      5 CAU          3.7010    -0.7680    -0.6750 ca         1 1JK      -0.085000
      6 CAV          3.2470     1.1410     0.7130 ca         1 1JK      -0.085000
      7 CBA          0.3130     0.3090     0.7750 cc         1 1JK      -0.286000
      8 CBC         -2.2200    -0.2990     0.8360 c3         1 1JK      -0.109700
      9 CBF         -2.7130     1.3680    -1.0030 c3         1 1JK      -0.066100
     10 NBG          0.9120    -1.3850    -0.5650 nd         1 1JK      -0.398300
     11 OBK         -0.4250    -1.4340    -0.3240 os         1 1JK      -0.062700
     12 CBN         -4.6180     0.0610     0.0280 c          1 1JK       0.722000
     13 CBS         -0.7870    -0.4230     0.4760 cd         1 1JK       0.229300
     14 CBT          2.7880     0.0100     0.0410 ca         1 1JK      -0.113500
     15 CBU          1.3660    -0.3470     0.0850 cc         1 1JK       0.319500
     16 CBV         -3.1190     0.0440    -0.3600 c3         1 1JK      -0.193700
     17 HAP          4.9300     2.3730     1.1950 ha         1 1JK       0.106000
     18 HAU          3.3630    -1.6510    -1.2010 ha         1 1JK       0.125000
     19 HAV          2.5610     1.7590     1.2770 ha         1 1JK       0.125000
     20 HBAA         0.3560     1.1870     1.3970 ha         1 1JK       0.145000
     21 HBC         -2.5560    -1.2310     1.2960 hc         1 1JK       0.071700
     22 HBCA        -2.3040     0.4760     1.6000 hc         1 1JK       0.071700
     23 HBF         -2.7850     2.1900    -0.2870 hc         1 1JK       0.017367
     24 HBFA        -1.6850     1.3450    -1.3700 hc         1 1JK       0.017367
     25 HBV         -3.0010    -0.7440    -1.1140 hc         1 1JK       0.042700
     26 OXT         -5.4090     0.3740    -0.8850 o          1 1JK      -0.731000
     27 H2          -3.3590     1.6010    -1.8470 hc         1 1JK       0.017367
     28 HAJ          6.5370     0.9860    -0.0790 ha         1 1JK       0.103000
     29 HAO          5.7360    -1.0290    -1.2760 ha         1 1JK       0.106000
@<TRIPOS>BOND
     1     1    12 1   
     2     2     3 ar  
     3     2     4 ar  
     4     2    28 1   
     5     3     5 ar  
     6     3    29 1   
     7     4     6 ar  
     8     4    17 1   
     9     5    14 ar  
    10     5    18 1   
    11     6    14 ar  
    12     6    19 1   
    13     7    13 2   
    14     7    15 1   
    15     7    20 1   
    16     8    13 1   
    17     8    16 1   
    18     8    21 1   
    19     8    22 1   
    20     9    16 1   
    21     9    23 1   
    22     9    24 1   
    23     9    27 1   
    24    10    11 1   
    25    10    15 2   
    26    11    13 1   
    27    12    16 1   
    28    12    26 1   
    29    14    15 1   
    30    16    25 1   
@<TRIPOS>SUBSTRUCTURE
     1 1JK         1 TEMP              0 ****  ****    0 ROOT
