@<TRIPOS>MOLECULE
1JL
   43    45     1     0     0
SMALL
No Charge or Current Charge


@<TRIPOS>ATOM
      1 C1           3.8940    -0.2610    -0.0410 ca         1 1JL      -0.004500
      2 C2           4.2400    -0.8650    -1.2630 ca         1 1JL      -0.137000
      3 C3           3.5960    -2.0430    -1.6850 ca         1 1JL      -0.039300
      4 C4           2.6010    -2.6150    -0.8700 ca         1 1JL      -0.137000
      5 C5           2.2500    -2.0180     0.3520 ca         1 1JL      -0.004500
      6 C6           2.8990    -0.8390     0.7720 ca         1 1JL      -0.294500
      7 S7           2.4320    -0.0530     2.3170 sy         1 1JL       1.151600
      8 O8           1.6390    -0.9580     3.1530 o          1 1JL      -0.563000
      9 O9           3.5570     0.7210     2.8420 o          1 1JL      -0.563000
     10 N10          1.3730     1.1520     1.8730 nu         1 1JL      -0.922100
     11 C11          0.3810     1.0650     0.9120 ca         1 1JL       0.317000
     12 C12          0.3100     2.0130    -0.1410 ca         1 1JL      -0.190600
     13 C13         -0.7150     1.8730    -1.1090 ca         1 1JL      -0.048000
     14 C14         -1.6480     0.8290    -1.0250 ca         1 1JL      -0.193000
     15 C15         -1.5830    -0.0850     0.0370 ca         1 1JL       0.108100
     16 C16         -0.5690     0.0330     0.9930 ca         1 1JL      -0.184000
     17 C17          1.2930     3.1630    -0.2750 c          1 1JL       0.720600
     18 O18          1.0110     4.0770    -1.0360 o          1 1JL      -0.687000
     19 O19          2.3280     3.1440     0.3790 o          1 1JL      -0.687000
     20 O20         -2.4800    -1.1230     0.1410 os         1 1JL      -0.258200
     21 C21         -3.8170    -0.9930    -0.1660 ca         1 1JL       0.148100
     22 C22         -4.4800    -2.0680    -0.7800 ca         1 1JL      -0.153000
     23 C23         -5.8480    -1.9690    -1.0900 ca         1 1JL      -0.089500
     24 C24         -6.5540    -0.7940    -0.7780 ca         1 1JL      -0.152000
     25 C25         -5.8970     0.2790    -0.1520 ca         1 1JL      -0.089500
     26 C26         -4.5290     0.1790     0.1580 ca         1 1JL      -0.153000
     27 C27          3.9740    -2.6940    -3.0060 c3         1 1JL      -0.049800
     28 H1           4.3980     0.6550     0.2640 ha         1 1JL       0.141000
     29 H2           5.0110    -0.4130    -1.8830 ha         1 1JL       0.106500
     30 H3           2.0960    -3.5250    -1.1850 ha         1 1JL       0.106500
     31 H4           1.4720    -2.4720     0.9650 ha         1 1JL       0.141000
     32 H5           2.0320     1.8990     1.6480 hn         1 1JL       0.586000
     33 H6          -0.7900     2.5730    -1.9390 ha         1 1JL       0.133000
     34 H7          -2.4180     0.7340    -1.7860 ha         1 1JL       0.110000
     35 H8          -0.5340    -0.6810     1.8080 ha         1 1JL       0.142000
     36 H10         -3.9320    -2.9760    -1.0170 ha         1 1JL       0.130000
     37 H11         -6.3600    -2.8010    -1.5700 ha         1 1JL       0.104500
     38 H12         -7.6120    -0.7170    -1.0180 ha         1 1JL       0.103000
     39 H13         -6.4460     1.1850     0.0950 ha         1 1JL       0.104500
     40 H14         -4.0270     1.0070     0.6520 ha         1 1JL       0.130000
     41 H15          4.7790    -3.4240    -2.8650 hc         1 1JL       0.038367
     42 H16          3.1200    -3.2180    -3.4520 hc         1 1JL       0.038367
     43 H17          4.3190    -1.9500    -3.7340 hc         1 1JL       0.038367
@<TRIPOS>BOND
     1     1     2 ar  
     2     1     6 ar  
     3     1    28 1   
     4     2     3 ar  
     5     2    29 1   
     6     3     4 ar  
     7     3    27 1   
     8     4     5 ar  
     9     4    30 1   
    10     5     6 ar  
    11     5    31 1   
    12     6     7 1   
    13     7     8 2   
    14     7     9 2   
    15     7    10 1   
    16    10    11 1   
    17    10    32 1   
    18    11    12 ar  
    19    11    16 ar  
    20    12    13 ar  
    21    12    17 1   
    22    13    14 ar  
    23    13    33 1   
    24    14    15 ar  
    25    14    34 1   
    26    15    16 ar  
    27    15    20 1   
    28    16    35 1   
    29    17    18 1   
    30    17    19 1   
    31    20    21 1   
    32    21    22 ar  
    33    21    26 ar  
    34    22    23 ar  
    35    22    36 1   
    36    23    24 ar  
    37    23    37 1   
    38    24    25 ar  
    39    24    38 1   
    40    25    26 ar  
    41    25    39 1   
    42    26    40 1   
    43    27    41 1   
    44    27    42 1   
    45    27    43 1   
@<TRIPOS>SUBSTRUCTURE
     1 1JL         1 TEMP              0 ****  ****    0 ROOT
