@<TRIPOS>MOLECULE
1JL
   43    45     1     0     0
SMALL
abcg2


@<TRIPOS>ATOM
      1 C1           3.5550    -0.1920    -0.1150 ca         1 1JL      -0.004500
      2 C2           4.0030    -0.7730    -1.2860 ca         1 1JL      -0.137000
      3 C3           3.6740    -2.0920    -1.6090 ca         1 1JL      -0.039300
      4 C4           2.8720    -2.8110    -0.7280 ca         1 1JL      -0.137000
      5 C5           2.4100    -2.2420     0.4510 ca         1 1JL      -0.004500
      6 C6           2.7600    -0.9370     0.7510 ca         1 1JL      -0.294500
      7 S7           2.1930    -0.1690     2.2400 sy         1 1JL       1.151600
      8 O8           1.3510    -1.1220     2.9480 o          1 1JL      -0.563000
      9 O9           3.3300     0.4090     2.9400 o          1 1JL      -0.563000
     10 N10          1.2990     1.1210     1.7540 nu         1 1JL      -0.922100
     11 C11          0.3220     1.0270     0.7520 ca         1 1JL       0.317000
     12 C12          0.2830     2.0380    -0.2230 ca         1 1JL      -0.190600
     13 C13         -0.7080     1.9660    -1.1980 ca         1 1JL      -0.048000
     14 C14         -1.6310     0.9380    -1.2400 ca         1 1JL      -0.193000
     15 C15         -1.5700    -0.0480    -0.2620 ca         1 1JL       0.108100
     16 C16         -0.6130    -0.0060     0.7360 ca         1 1JL      -0.184000
     17 C17          1.2780     3.1860    -0.2610 c          1 1JL       0.720600
     18 O18          1.1860     3.9980    -1.1850 o          1 1JL      -0.687000
     19 O19          2.1400     3.2300     0.6650 o          1 1JL      -0.687000
     20 O20         -2.4180    -1.1190    -0.2670 os         1 1JL      -0.258200
     21 C21         -3.7680    -0.9250    -0.3330 ca         1 1JL       0.148100
     22 C22         -4.5170    -1.9510    -0.8980 ca         1 1JL      -0.153000
     23 C23         -5.8990    -1.8460    -0.9410 ca         1 1JL      -0.089500
     24 C24         -6.5380    -0.7210    -0.4350 ca         1 1JL      -0.152000
     25 C25         -5.7790     0.2960     0.1270 ca         1 1JL      -0.089500
     26 C26         -4.3950     0.2020     0.1860 ca         1 1JL      -0.153000
     27 C27          4.1910    -2.7160    -2.8700 c3         1 1JL      -0.049800
     28 H1           3.8110     0.8370     0.1060 ha         1 1JL       0.141000
     29 H2           4.6180    -0.1930    -1.9620 ha         1 1JL       0.106500
     30 H3           2.5960    -3.8310    -0.9630 ha         1 1JL       0.106500
     31 H4           1.7820    -2.8160     1.1170 ha         1 1JL       0.141000
     32 H5           1.8660     2.0000     1.5570 hn         1 1JL       0.586000
     33 H6          -0.7440     2.7340    -1.9580 ha         1 1JL       0.133000
     34 H7          -2.3790     0.9020    -2.0220 ha         1 1JL       0.110000
     35 H8          -0.6120    -0.7740     1.4970 ha         1 1JL       0.142000
     36 H10         -4.0170    -2.8250    -1.2960 ha         1 1JL       0.130000
     37 H11         -6.4770    -2.6490    -1.3800 ha         1 1JL       0.104500
     38 H12         -7.6160    -0.6400    -0.4740 ha         1 1JL       0.103000
     39 H13         -6.2630     1.1750     0.5320 ha         1 1JL       0.104500
     40 H14         -3.8210     1.0010     0.6380 ha         1 1JL       0.130000
     41 H15          5.2330    -3.0200    -2.7490 hc         1 1JL       0.038367
     42 H16          3.6200    -3.6020    -3.1430 hc         1 1JL       0.038367
     43 H17          4.1550    -2.0150    -3.7040 hc         1 1JL       0.038367
@<TRIPOS>BOND
     1     1     2 ar  
     2     1     6 ar  
     3     1    28 1   
     4     2     3 ar  
     5     2    29 1   
     6     3     4 ar  
     7     3    27 1   
     8     4     5 ar  
     9     4    30 1   
    10     5     6 ar  
    11     5    31 1   
    12     6     7 1   
    13     7     8 2   
    14     7     9 2   
    15     7    10 1   
    16    10    11 1   
    17    10    32 1   
    18    11    12 ar  
    19    11    16 ar  
    20    12    13 ar  
    21    12    17 1   
    22    13    14 ar  
    23    13    33 1   
    24    14    15 ar  
    25    14    34 1   
    26    15    16 ar  
    27    15    20 1   
    28    16    35 1   
    29    17    18 1   
    30    17    19 1   
    31    20    21 1   
    32    21    22 ar  
    33    21    26 ar  
    34    22    23 ar  
    35    22    36 1   
    36    23    24 ar  
    37    23    37 1   
    38    24    25 ar  
    39    24    38 1   
    40    25    26 ar  
    41    25    39 1   
    42    26    40 1   
    43    27    41 1   
    44    27    42 1   
    45    27    43 1   
@<TRIPOS>SUBSTRUCTURE
     1 1JL         1 TEMP              0 ****  ****    0 ROOT
