@<TRIPOS>MOLECULE
1JN
   42    45     1     0     0
SMALL
abcg2


@<TRIPOS>ATOM
      1 C4          -2.8430     1.3980     1.1470 ca         1 1JN      -0.199000
      2 C5          -3.1940    -0.2700    -0.5780 ca         1 1JN      -0.102300
      3 C6          -3.8800    -0.7160    -1.8350 c3         1 1JN      -0.034800
      4 C7          -2.2710    -1.0770     0.0630 ca         1 1JN      -0.056000
      5 C8          -1.9170     0.5610     1.7620 ca         1 1JN      -0.058000
      6 C10          2.2700    -1.7700    -0.2920 ca         1 1JN       0.064400
      7 C13          1.4740    -1.0260     0.5980 ca         1 1JN      -0.076200
      8 C15          4.2680     2.4350    -0.7920 c5         1 1JN      -0.077400
      9 C17          3.3590     2.2720     0.4370 c5         1 1JN      -0.033100
     10 C20          1.7310     0.3080     0.9090 ca         1 1JN      -0.098000
     11 C22         -0.6150    -1.5920     1.8880 c3         1 1JN       0.138900
     12 C1          -4.7120     3.0110    -0.1830 c3         1 1JN       0.146900
     13 O2          -4.3830     1.7310    -0.6850 os         1 1JN      -0.339100
     14 C3          -3.4780     0.9890    -0.0190 ca         1 1JN       0.151100
     15 C9          -1.6190    -0.6810     1.2320 ca         1 1JN      -0.155300
     16 N11          1.7770    -3.0500    -0.4020 nc         1 1JN      -0.573100
     17 C12          0.7380    -3.0740     0.3830 cd         1 1JN       0.411700
     18 C14          3.3720    -1.1780    -0.9130 ca         1 1JN      -0.039000
     19 C16          4.7490     1.0140    -1.1230 c5         1 1JN      -0.029100
     20 C18          3.6310     0.1440    -0.6130 ca         1 1JN      -0.111300
     21 C19          2.8260     0.8730     0.2850 ca         1 1JN      -0.072300
     22 N21          0.5010    -1.8970     1.0170 na         1 1JN      -0.181600
     23 H1          -3.0490     2.3640     1.5880 ha         1 1JN       0.119000
     24 H2          -4.9640    -0.7510    -1.7140 hc         1 1JN       0.045033
     25 H3          -3.6750    -0.0410    -2.6680 hc         1 1JN       0.045033
     26 H4          -3.5460    -1.7110    -2.1230 hc         1 1JN       0.045033
     27 H5          -2.0520    -2.0500    -0.3640 ha         1 1JN       0.116000
     28 H6          -1.4260     0.8950     2.6690 ha         1 1JN       0.110000
     29 H7           3.6810     2.8240    -1.6270 hc         1 1JN       0.044200
     30 H8           5.0890     3.1310    -0.6200 hc         1 1JN       0.044200
     31 H9           3.9370     2.3560     1.3630 hc         1 1JN       0.050200
     32 H10          2.5730     3.0280     0.4860 hc         1 1JN       0.050200
     33 H11          1.1090     0.8740     1.5920 ha         1 1JN       0.118000
     34 H12         -0.2360    -1.1410     2.8070 h1         1 1JN       0.061700
     35 H13         -1.0730    -2.5420     2.1670 h1         1 1JN       0.061700
     36 H14         -5.1530     2.9560     0.8150 h1         1 1JN       0.041367
     37 H15         -3.8410     3.6700    -0.1460 h1         1 1JN       0.041367
     38 H16         -5.4440     3.4330    -0.8670 h1         1 1JN       0.041367
     39 H17          0.0980    -3.9300     0.5460 h5         1 1JN       0.057800
     40 H18          3.9900    -1.7390    -1.6040 ha         1 1JN       0.128000
     41 H19          4.9470     0.8720    -2.1870 hc         1 1JN       0.050700
     42 H20          5.6800     0.7810    -0.5960 hc         1 1JN       0.050700
@<TRIPOS>BOND
     1     1     5 ar  
     2     1    14 ar  
     3     1    23 1   
     4     2     3 1   
     5     2     4 ar  
     6     2    14 ar  
     7     3    24 1   
     8     3    25 1   
     9     3    26 1   
    10     4    15 ar  
    11     4    27 1   
    12     5    15 ar  
    13     5    28 1   
    14     6     7 ar  
    15     6    16 1   
    16     6    18 ar  
    17     7    10 ar  
    18     7    22 1   
    19     8     9 1   
    20     8    19 1   
    21     8    29 1   
    22     8    30 1   
    23     9    21 1   
    24     9    31 1   
    25     9    32 1   
    26    10    21 ar  
    27    10    33 1   
    28    11    15 1   
    29    11    22 1   
    30    11    34 1   
    31    11    35 1   
    32    12    13 1   
    33    12    36 1   
    34    12    37 1   
    35    12    38 1   
    36    13    14 1   
    37    16    17 2   
    38    17    22 1   
    39    17    39 1   
    40    18    20 ar  
    41    18    40 1   
    42    19    20 1   
    43    19    41 1   
    44    19    42 1   
    45    20    21 ar  
@<TRIPOS>SUBSTRUCTURE
     1 1JN         1 TEMP              0 ****  ****    0 ROOT
