@<TRIPOS>MOLECULE
1JN
   42    45     1     0     0
SMALL
No Charge or Current Charge


@<TRIPOS>ATOM
      1 C4          -3.1160     1.2530     1.4240 ca         1 1JN      -0.199000
      2 C5          -2.8200     0.0500    -0.6780 ca         1 1JN      -0.102300
      3 C6          -3.1360    -0.1430    -2.1580 c3         1 1JN      -0.034800
      4 C7          -1.9170    -0.8210    -0.0380 ca         1 1JN      -0.056000
      5 C8          -2.2140     0.3810     2.0530 ca         1 1JN      -0.058000
      6 C10          2.3470    -1.9590    -0.0530 ca         1 1JN       0.064400
      7 C13          1.4700    -1.1830     0.6630 ca         1 1JN      -0.076200
      8 C15          4.0140     2.2910    -1.1900 c5         1 1JN      -0.077400
      9 C17          3.0440     2.2600     0.0530 c5         1 1JN      -0.033100
     10 C20          1.6020     0.2130     0.7670 ca         1 1JN      -0.098000
     11 C22         -0.6190    -1.5930     2.0300 c3         1 1JN       0.138900
     12 C1          -4.9670     3.0270     0.0650 c3         1 1JN       0.146900
     13 O2          -4.3060     1.9350    -0.5990 os         1 1JN      -0.339100
     14 C3          -3.4230     1.0950     0.0550 ca         1 1JN       0.151100
     15 C9          -1.6040    -0.6580     1.3280 ca         1 1JN      -0.155300
     16 N11          2.0030    -3.3020    -0.0040 nc         1 1JN      -0.573100
     17 C12          0.8920    -3.2940     0.7640 cd         1 1JN       0.411700
     18 C14          3.4350    -1.3750    -0.7260 ca         1 1JN      -0.039000
     19 C16          4.6670     0.8580    -1.2660 c5         1 1JN      -0.029100
     20 C18          3.5830     0.0250    -0.6370 ca         1 1JN      -0.111300
     21 C19          2.6890     0.7980     0.0900 ca         1 1JN      -0.072300
     22 N21          0.5230    -2.0110     1.2000 na         1 1JN      -0.181600
     23 H1          -3.5650     2.0450     2.0160 ha         1 1JN       0.119000
     24 H2          -4.2060    -0.3300    -2.3090 hc         1 1JN       0.045033
     25 H3          -2.8670     0.7490    -2.7360 hc         1 1JN       0.045033
     26 H4          -2.5890    -0.9910    -2.5870 hc         1 1JN       0.045033
     27 H5          -1.4560    -1.6260    -0.6060 ha         1 1JN       0.116000
     28 H6          -1.9860     0.5170     3.1090 ha         1 1JN       0.110000
     29 H7           3.4390     2.4860    -2.1030 hc         1 1JN       0.044200
     30 H8           4.7620     3.0880    -1.1160 hc         1 1JN       0.044200
     31 H9           3.5550     2.5700     0.9720 hc         1 1JN       0.050200
     32 H10          2.1740     2.9130    -0.0830 hc         1 1JN       0.050200
     33 H11          0.9010     0.8160     1.3380 ha         1 1JN       0.118000
     34 H12         -0.2220    -1.1010     2.9280 h1         1 1JN       0.061700
     35 H13         -1.1570    -2.4910     2.3610 h1         1 1JN       0.061700
     36 H14         -5.5880     2.6620     0.8920 h1         1 1JN       0.041367
     37 H15         -4.2360     3.7430     0.4610 h1         1 1JN       0.041367
     38 H16         -5.6180     3.5610    -0.6390 h1         1 1JN       0.041367
     39 H17          0.3100    -4.1650     1.0410 h5         1 1JN       0.057800
     40 H18          4.1350    -1.9830    -1.2940 ha         1 1JN       0.128000
     41 H19          4.8970     0.5620    -2.2960 hc         1 1JN       0.050700
     42 H20          5.5970     0.8070    -0.6880 hc         1 1JN       0.050700
@<TRIPOS>BOND
     1     1     5 ar  
     2     1    14 ar  
     3     1    23 1   
     4     2     3 1   
     5     2     4 ar  
     6     2    14 ar  
     7     3    24 1   
     8     3    25 1   
     9     3    26 1   
    10     4    15 ar  
    11     4    27 1   
    12     5    15 ar  
    13     5    28 1   
    14     6     7 ar  
    15     6    16 1   
    16     6    18 ar  
    17     7    10 ar  
    18     7    22 1   
    19     8     9 1   
    20     8    19 1   
    21     8    29 1   
    22     8    30 1   
    23     9    21 1   
    24     9    31 1   
    25     9    32 1   
    26    10    21 ar  
    27    10    33 1   
    28    11    15 1   
    29    11    22 1   
    30    11    34 1   
    31    11    35 1   
    32    12    13 1   
    33    12    36 1   
    34    12    37 1   
    35    12    38 1   
    36    13    14 1   
    37    16    17 2   
    38    17    22 1   
    39    17    39 1   
    40    18    20 ar  
    41    18    40 1   
    42    19    20 1   
    43    19    41 1   
    44    19    42 1   
    45    20    21 ar  
@<TRIPOS>SUBSTRUCTURE
     1 1JN         1 TEMP              0 ****  ****    0 ROOT
