@<TRIPOS>MOLECULE
1JO
   57    57     1     0     0
SMALL
No Charge or Current Charge


@<TRIPOS>ATOM
      1 OXT         -7.4830    -3.1170    -1.7590 o          1 1JO      -0.737500
      2 C           -6.9480    -3.3480    -0.6830 c          1 1JO       0.694000
      3 O           -7.5790    -3.5410     0.3480 o          1 1JO      -0.737500
      4 CA          -5.3740    -3.5400    -0.6520 c3         1 1JO       0.011500
      5 N           -4.8790    -4.8590    -0.1090 n8         1 1JO      -1.003200
      6 CB          -4.7020    -2.3480     0.0830 c3         1 1JO      -0.043400
      7 CG          -3.1630    -2.2690    -0.0940 c3         1 1JO      -0.145400
      8 CD          -2.5870    -1.0180     0.5800 c          1 1JO       0.601100
      9 OE1         -2.4810    -0.9160     1.7940 o          1 1JO      -0.606100
     10 NE2         -2.1850    -0.0260    -0.2870 ns         1 1JO      -0.498900
     11 CBD         -1.5390     1.2500     0.1100 c3         1 1JO       0.042700
     12 CBA         -2.2310     2.4530    -0.5930 c          1 1JO       0.578100
     13 OAE         -2.9680     2.3310    -1.5660 o          1 1JO      -0.631100
     14 NAU         -1.9620     3.6890    -0.0410 ns         1 1JO      -0.462900
     15 CAQ         -2.4920     4.9770    -0.5460 c3         1 1JO      -0.054000
     16 CAX         -2.1350     6.1720     0.3830 c          1 1JO       0.713000
     17 OAF         -1.1470     6.0830     1.0990 o          1 1JO      -0.737000
     18 OAB         -2.8850     7.1380     0.3900 o          1 1JO      -0.737000
     19 CAT         -0.0250     1.2390    -0.2180 c3         1 1JO       0.062600
     20 SAW          0.8830    -0.0970     0.6950 ss         1 1JO      -0.448000
     21 CAO          2.5860     0.1620     0.0260 c3         1 1JO       0.056600
     22 CAM          3.5660    -0.8580     0.6380 c3         1 1JO      -0.065400
     23 CAN          5.0090    -0.6920     0.1150 c3         1 1JO      -0.073400
     24 CAR          5.9970    -1.7100     0.7230 c3         1 1JO      -0.035100
     25 CBB          7.4110    -1.5250     0.1900 ca         1 1JO      -0.068300
     26 CAK          7.8300    -2.2100    -0.9670 ca         1 1JO      -0.107000
     27 CAI          9.1340    -2.0350    -1.4620 ca         1 1JO      -0.112500
     28 CAH         10.0270    -1.1730    -0.8030 ca         1 1JO      -0.120000
     29 CAJ          9.6140    -0.4840     0.3500 ca         1 1JO      -0.112500
     30 CAL          8.3100    -0.6590     0.8450 ca         1 1JO      -0.107000
     31 H2          -5.0420    -3.4970    -1.6990 h1         1 1JO       0.027700
     32 H3          -5.2850    -4.9950     0.8250 hn         1 1JO       0.377500
     33 H4          -5.2940    -5.6220    -0.6570 hn         1 1JO       0.377500
     34 H6          -5.1410    -1.4170    -0.2980 hc         1 1JO       0.060200
     35 H7          -4.9480    -2.3910     1.1510 hc         1 1JO       0.060200
     36 H8          -2.7070    -3.1520     0.3680 hc         1 1JO       0.048200
     37 H9          -2.9360    -2.2540    -1.1670 hc         1 1JO       0.048200
     38 H10         -2.3470    -0.1920    -1.2740 hn         1 1JO       0.313500
     39 H11         -1.6630     1.3990     1.1900 h1         1 1JO       0.082700
     40 H12         -1.3470     3.7160     0.7670 hn         1 1JO       0.338500
     41 H13         -2.0720     5.1740    -1.5410 h1         1 1JO       0.037200
     42 H14         -3.5840     4.9080    -0.6290 h1         1 1JO       0.037200
     43 H16          0.1140     1.0910    -1.2970 h1         1 1JO       0.070700
     44 H17          0.4200     2.2060     0.0500 h1         1 1JO       0.070700
     45 H18          2.5650     0.0470    -1.0660 h1         1 1JO       0.055200
     46 H19          2.9150     1.1820     0.2630 h1         1 1JO       0.055200
     47 H20          3.5610    -0.7480     1.7300 hc         1 1JO       0.050200
     48 H21          3.2130    -1.8720     0.4140 hc         1 1JO       0.050200
     49 H22          5.0120    -0.7990    -0.9770 hc         1 1JO       0.042200
     50 H23          5.3590     0.3240     0.3370 hc         1 1JO       0.042200
     51 H24          5.9910    -1.6100     1.8160 hc         1 1JO       0.047200
     52 H25          5.6440    -2.7270     0.5090 hc         1 1JO       0.047200
     53 H26          7.1440    -2.8780    -1.4840 ha         1 1JO       0.112500
     54 H27          9.4520    -2.5670    -2.3560 ha         1 1JO       0.106500
     55 H28         11.0360    -1.0370    -1.1860 ha         1 1JO       0.104000
     56 H29         10.3030     0.1850     0.8600 ha         1 1JO       0.106500
     57 H30          7.9970    -0.1210     1.7370 ha         1 1JO       0.112500
@<TRIPOS>BOND
     1     1     2 1   
     2     2     3 1   
     3     2     4 1   
     4     4     5 1   
     5     4     6 1   
     6     4    31 1   
     7     5    32 1   
     8     5    33 1   
     9     6     7 1   
    10     6    34 1   
    11     6    35 1   
    12     7     8 1   
    13     7    36 1   
    14     7    37 1   
    15     8     9 2   
    16     8    10 1   
    17    10    11 1   
    18    10    38 1   
    19    11    12 1   
    20    11    19 1   
    21    11    39 1   
    22    12    13 2   
    23    12    14 1   
    24    14    15 1   
    25    14    40 1   
    26    15    16 1   
    27    15    41 1   
    28    15    42 1   
    29    16    17 1   
    30    16    18 1   
    31    19    20 1   
    32    19    43 1   
    33    19    44 1   
    34    20    21 1   
    35    21    22 1   
    36    21    45 1   
    37    21    46 1   
    38    22    23 1   
    39    22    47 1   
    40    22    48 1   
    41    23    24 1   
    42    23    49 1   
    43    23    50 1   
    44    24    25 1   
    45    24    51 1   
    46    24    52 1   
    47    25    26 ar  
    48    25    30 ar  
    49    26    27 ar  
    50    26    53 1   
    51    27    28 ar  
    52    27    54 1   
    53    28    29 ar  
    54    28    55 1   
    55    29    30 ar  
    56    29    56 1   
    57    30    57 1   
@<TRIPOS>SUBSTRUCTURE
     1 1JO         1 TEMP              0 ****  ****    0 ROOT
