@<TRIPOS>MOLECULE
1JO
   57    57     1     0     0
SMALL
bcc


@<TRIPOS>ATOM
      1 OXT         -6.8970    -2.6780    -2.4880 o          1 1JO      -0.842800
      2 C           -6.8420    -3.2930    -1.4020 c          1 1JO       0.904600
      3 O           -7.8020    -3.8010    -0.7900 o          1 1JO      -0.842800
      4 CA          -5.4370    -3.4050    -0.7560 c3         1 1JO       0.011500
      5 N           -5.3460    -4.3070     0.3820 n8         1 1JO      -0.892800
      6 CB          -4.9530    -2.0090    -0.3600 c3         1 1JO      -0.043400
      7 CG          -3.5180    -2.0100     0.1540 c3         1 1JO      -0.145400
      8 CD          -3.0540    -0.6320     0.5570 c          1 1JO       0.668100
      9 OE1         -3.7370     0.1220     1.2380 o          1 1JO      -0.606100
     10 NE2         -1.8210    -0.2840     0.1440 ns         1 1JO      -0.565900
     11 CBD         -1.2870     1.0250     0.4010 c3         1 1JO       0.042700
     12 CBA         -2.0700     2.0950    -0.3750 c          1 1JO       0.645100
     13 OAE         -2.5820     1.8480    -1.4570 o          1 1JO      -0.631100
     14 NAU         -2.0910     3.2920     0.2060 ns         1 1JO      -0.529900
     15 CAQ         -2.6880     4.4660    -0.3790 c3         1 1JO      -0.054000
     16 CAX         -2.4870     5.6950     0.5310 c          1 1JO       0.923600
     17 OAF         -1.8610     5.5170     1.5940 o          1 1JO      -0.842300
     18 OAB         -2.9760     6.7550     0.1050 o          1 1JO      -0.842300
     19 CAT          0.1760     1.0920    -0.0240 c3         1 1JO       0.014700
     20 SAW          1.1520    -0.1270     0.9020 ss         1 1JO      -0.352200
     21 CAO          2.7710     0.1310     0.1220 c3         1 1JO       0.008700
     22 CAM          3.8050    -0.7720     0.7780 c3         1 1JO      -0.065400
     23 CAN          5.1700    -0.6480     0.1110 c3         1 1JO      -0.073400
     24 CAR          6.2240    -1.5290     0.7850 c3         1 1JO      -0.035100
     25 CBB          7.5650    -1.4230     0.1160 ca         1 1JO      -0.068300
     26 CAK          7.8650    -2.1960    -1.0040 ca         1 1JO      -0.125000
     27 CAI          9.0890    -2.0760    -1.6490 ca         1 1JO      -0.130500
     28 CAH         10.0380    -1.1740    -1.1810 ca         1 1JO      -0.138000
     29 CAJ          9.7510    -0.3970    -0.0670 ca         1 1JO      -0.130500
     30 CAL          8.5240    -0.5220     0.5740 ca         1 1JO      -0.125000
     31 H2          -4.7540    -3.7830    -1.5270 h1         1 1JO       0.027700
     32 H3          -6.1590    -4.1500     0.9680 hn         1 1JO       0.322300
     33 H4          -5.4560    -5.2580     0.0530 hn         1 1JO       0.322300
     34 H6          -5.0360    -1.3480    -1.2240 hc         1 1JO       0.060200
     35 H7          -5.6150    -1.6010     0.4110 hc         1 1JO       0.060200
     36 H8          -3.4520    -2.6620     1.0280 hc         1 1JO       0.048200
     37 H9          -2.8520    -2.4400    -0.6000 hc         1 1JO       0.048200
     38 H10         -1.3270    -0.8880    -0.4920 hn         1 1JO       0.313500
     39 H11         -1.3530     1.2390     1.4720 h1         1 1JO       0.082700
     40 H12         -1.6660     3.4460     1.1100 hn         1 1JO       0.338500
     41 H13         -2.2500     4.6760    -1.3600 h1         1 1JO       0.037200
     42 H14         -3.7590     4.3160    -0.5440 h1         1 1JO       0.037200
     43 H16          0.2710     0.8980    -1.0950 h1         1 1JO       0.070700
     44 H17          0.5610     2.0930     0.1740 h1         1 1JO       0.070700
     45 H18          2.6880    -0.0910    -0.9440 h1         1 1JO       0.055200
     46 H19          3.0580     1.1800     0.2270 h1         1 1JO       0.055200
     47 H20          3.8910    -0.5200     1.8390 hc         1 1JO       0.050200
     48 H21          3.4700    -1.8120     0.7270 hc         1 1JO       0.050200
     49 H22          5.0870    -0.9240    -0.9450 hc         1 1JO       0.042200
     50 H23          5.5020     0.3940     0.1350 hc         1 1JO       0.042200
     51 H24          6.3130    -1.2420     1.8360 hc         1 1JO       0.047200
     52 H25          5.8850    -2.5690     0.7720 hc         1 1JO       0.047200
     53 H26          7.1340    -2.9060    -1.3750 ha         1 1JO       0.130500
     54 H27          9.3030    -2.6890    -2.5150 ha         1 1JO       0.124500
     55 H28         10.9950    -1.0830    -1.6790 ha         1 1JO       0.122000
     56 H29         10.4840     0.3060     0.3080 ha         1 1JO       0.124500
     57 H30          8.3130     0.0840     1.4470 ha         1 1JO       0.130500
@<TRIPOS>BOND
     1     1     2 1   
     2     2     3 1   
     3     2     4 1   
     4     4     5 1   
     5     4     6 1   
     6     4    31 1   
     7     5    32 1   
     8     5    33 1   
     9     6     7 1   
    10     6    34 1   
    11     6    35 1   
    12     7     8 1   
    13     7    36 1   
    14     7    37 1   
    15     8     9 2   
    16     8    10 1   
    17    10    11 1   
    18    10    38 1   
    19    11    12 1   
    20    11    19 1   
    21    11    39 1   
    22    12    13 2   
    23    12    14 1   
    24    14    15 1   
    25    14    40 1   
    26    15    16 1   
    27    15    41 1   
    28    15    42 1   
    29    16    17 1   
    30    16    18 1   
    31    19    20 1   
    32    19    43 1   
    33    19    44 1   
    34    20    21 1   
    35    21    22 1   
    36    21    45 1   
    37    21    46 1   
    38    22    23 1   
    39    22    47 1   
    40    22    48 1   
    41    23    24 1   
    42    23    49 1   
    43    23    50 1   
    44    24    25 1   
    45    24    51 1   
    46    24    52 1   
    47    25    26 ar  
    48    25    30 ar  
    49    26    27 ar  
    50    26    53 1   
    51    27    28 ar  
    52    27    54 1   
    53    28    29 ar  
    54    28    55 1   
    55    29    30 ar  
    56    29    56 1   
    57    30    57 1   
@<TRIPOS>SUBSTRUCTURE
     1 1JO         1 TEMP              0 ****  ****    0 ROOT
