@<TRIPOS>MOLECULE
1JQ
   29    30     1     0     0
SMALL
bcc


@<TRIPOS>ATOM
      1 CBC          2.2670    -0.1550    -0.9480 c3         1 1JQ      -0.109700
      2 CBS          0.8150    -0.3560    -0.7090 cc         1 1JQ       0.338000
      3 CBA         -0.2150     0.5020    -0.5050 cd         1 1JQ      -0.429600
      4 OBK          0.3490    -1.6080    -0.6410 os         1 1JQ      -0.113100
      5 NBG         -0.9880    -1.6000    -0.3940 nc         1 1JQ      -0.401300
      6 CBU         -1.3380    -0.3440    -0.3100 cd         1 1JQ       0.385800
      7 CBT         -2.7310     0.0360    -0.0550 ca         1 1JQ      -0.114500
      8 CAU         -3.7160    -0.9350     0.1330 ca         1 1JQ      -0.103000
      9 CAO         -5.0300    -0.5650     0.3680 ca         1 1JQ      -0.141000
     10 CAJ         -5.3820     0.7790     0.4190 ca         1 1JQ      -0.130000
     11 CAP         -4.4090     1.7500     0.2340 ca         1 1JQ      -0.141000
     12 CAV         -3.0920     1.3820    -0.0010 ca         1 1JQ      -0.103000
     13 CBF          2.9340    -0.9170     1.3800 c3         1 1JQ      -0.066100
     14 CBV          3.0400     0.1880     0.3320 c3         1 1JQ      -0.191700
     15 CBN          4.5230     0.5280     0.0380 c          1 1JQ       0.932600
     16 OAC          4.8910     0.5530    -1.1520 o          1 1JQ      -0.834800
     17 OX0          5.2330     0.7640     1.0360 o          1 1JQ      -0.834800
     18 HBC1         2.6850    -1.0520    -1.4100 hc         1 1JQ       0.072700
     19 HBC2         2.3830     0.6540    -1.6690 hc         1 1JQ       0.072700
     20 HBV          2.5910     1.0930     0.7590 hc         1 1JQ       0.031700
     21 HBA         -0.1730     1.5780    -0.5020 ha         1 1JQ       0.166000
     22 HAU         -3.4560    -1.9850     0.0940 ha         1 1JQ       0.143500
     23 HAV         -2.3460     2.1530    -0.1430 ha         1 1JQ       0.143500
     24 HAO         -5.7830    -1.3290     0.5120 ha         1 1JQ       0.124000
     25 HAJ         -6.4090     1.0650     0.6030 ha         1 1JQ       0.121000
     26 HAP         -4.6710     2.7990     0.2730 ha         1 1JQ       0.124000
     27 HBF1         3.3490    -1.8570     1.0080 hc         1 1JQ       0.019700
     28 HBF2         3.4800    -0.6430     2.2800 hc         1 1JQ       0.019700
     29 HBF3         1.9000    -1.1070     1.6730 hc         1 1JQ       0.019700
@<TRIPOS>BOND
     1     1     2 1   
     2     1    14 1   
     3     1    18 1   
     4     1    19 1   
     5     2     3 2   
     6     2     4 1   
     7     3     6 1   
     8     3    21 1   
     9     4     5 1   
    10     5     6 2   
    11     6     7 1   
    12     7     8 ar  
    13     7    12 ar  
    14     8     9 ar  
    15     8    22 1   
    16     9    10 ar  
    17     9    24 1   
    18    10    11 ar  
    19    10    25 1   
    20    11    12 ar  
    21    11    26 1   
    22    12    23 1   
    23    13    14 1   
    24    13    27 1   
    25    13    28 1   
    26    13    29 1   
    27    14    15 1   
    28    14    20 1   
    29    15    16 1   
    30    15    17 1   
@<TRIPOS>SUBSTRUCTURE
     1 1JQ         1 TEMP              0 ****  ****    0 ROOT
