@<TRIPOS>MOLECULE
1JQ
   29    30     1     0     0
SMALL
No Charge or Current Charge


@<TRIPOS>ATOM
      1 CBC          2.2720    -0.1570    -0.9450 c3         1 1JQ      -0.109700
      2 CBS          0.8140    -0.4440    -0.7080 cc         1 1JQ       0.228300
      3 CBA         -0.2380     0.3820    -0.4840 cd         1 1JQ      -0.281000
      4 OBK          0.3610    -1.7390    -0.7080 os         1 1JQ      -0.068700
      5 NBG         -1.0630    -1.7240    -0.4640 nc         1 1JQ      -0.401300
      6 CBU         -1.3720    -0.4420    -0.3350 cd         1 1JQ       0.320500
      7 CBT         -2.7610     0.0040    -0.0730 ca         1 1JQ      -0.114500
      8 CAU         -3.8300    -0.9240    -0.0470 ca         1 1JQ      -0.085000
      9 CAO         -5.1450    -0.4990     0.2110 ca         1 1JQ      -0.123000
     10 CAJ         -5.4140     0.8570     0.4500 ca         1 1JQ      -0.112000
     11 CAP         -4.3640     1.7880     0.4330 ca         1 1JQ      -0.123000
     12 CAV         -3.0480     1.3660     0.1760 ca         1 1JQ      -0.085000
     13 CBF          3.0600    -0.9580     1.3790 c3         1 1JQ      -0.066100
     14 CBV          3.0620     0.1980     0.3470 c3         1 1JQ      -0.191700
     15 CBN          4.5060     0.6520     0.0190 c          1 1JQ       0.722000
     16 OAC          5.2590    -0.1410    -0.5270 o          1 1JQ      -0.729500
     17 OX0          4.8290     1.7930     0.3110 o          1 1JQ      -0.729500
     18 HBC1         2.7390    -1.0200    -1.4350 hc         1 1JQ       0.072700
     19 HBC2         2.3540     0.6770    -1.6520 hc         1 1JQ       0.072700
     20 HBV          2.5510     1.0470     0.8190 hc         1 1JQ       0.031700
     21 HBA         -0.1950     1.4620    -0.4320 ha         1 1JQ       0.148000
     22 HAU         -3.6500    -1.9810    -0.2290 ha         1 1JQ       0.125500
     23 HAV         -2.2560     2.1100     0.1740 ha         1 1JQ       0.125500
     24 HAO         -5.9560    -1.2240     0.2260 ha         1 1JQ       0.106000
     25 HAJ         -6.4310     1.1850     0.6500 ha         1 1JQ       0.103000
     26 HAP         -4.5690     2.8400     0.6220 ha         1 1JQ       0.106000
     27 HBF1         3.5080    -1.8640     0.9540 hc         1 1JQ       0.019700
     28 HBF2         3.6350    -0.6760     2.2700 hc         1 1JQ       0.019700
     29 HBF3         2.0390    -1.1970     1.7000 hc         1 1JQ       0.019700
@<TRIPOS>BOND
     1     1     2 1   
     2     1    14 1   
     3     1    18 1   
     4     1    19 1   
     5     2     3 2   
     6     2     4 1   
     7     3     6 1   
     8     3    21 1   
     9     4     5 1   
    10     5     6 2   
    11     6     7 1   
    12     7     8 ar  
    13     7    12 ar  
    14     8     9 ar  
    15     8    22 1   
    16     9    10 ar  
    17     9    24 1   
    18    10    11 ar  
    19    10    25 1   
    20    11    12 ar  
    21    11    26 1   
    22    12    23 1   
    23    13    14 1   
    24    13    27 1   
    25    13    28 1   
    26    13    29 1   
    27    14    15 1   
    28    14    20 1   
    29    15    16 1   
    30    15    17 1   
@<TRIPOS>SUBSTRUCTURE
     1 1JQ         1 TEMP              0 ****  ****    0 ROOT
