@<TRIPOS>MOLECULE
1JR
   33    36     1     0     0
SMALL
No Charge or Current Charge


@<TRIPOS>ATOM
      1 C1           4.5580     0.0230     0.0660 ca         1 1JR      -0.096000
      2 C2           3.5600    -0.4580     0.9270 ca         1 1JR      -0.107000
      3 C3           4.2280     0.9540    -0.9300 ca         1 1JR      -0.107000
      4 C4          -0.0860    -3.6590     0.6610 ca         1 1JR      -0.166000
      5 C5           2.2340    -0.0120     0.7880 ca         1 1JR      -0.091500
      6 C6           2.9020     1.4000    -1.0680 ca         1 1JR      -0.091500
      7 C7          -0.3280    -2.4320     1.2980 ca         1 1JR      -0.063000
      8 C8          -0.4250    -3.8080    -0.6920 ca         1 1JR       0.342900
      9 C9          -1.2130    -1.6310    -0.8030 ca         1 1JR       0.365900
     10 C10          1.8840     0.9160    -0.2150 ca         1 1JR      -0.027000
     11 C11         -0.8970    -1.3820     0.5510 ca         1 1JR      -0.158300
     12 C12         -0.6670     1.0070     0.2240 cc         1 1JR      -0.215300
     13 C13          0.4930     1.3930    -0.3780 cd         1 1JR      -0.050000
     14 C14         -1.6830     1.7930    -0.2340 cc         1 1JR       0.175500
     15 C15         -2.9410     1.3930     0.3940 c          1 1JR       0.507500
     16 C16         -1.1810    -0.0340     1.2070 c5         1 1JR       0.264300
     17 N17         -0.9840    -2.8160    -1.4200 nb         1 1JR      -0.664000
     18 N18          0.0520     2.4540    -1.2100 na         1 1JR       0.001800
     19 N19         -1.3310     2.7060    -1.1140 nd         1 1JR      -0.427800
     20 N20         -2.6170     0.3400     1.2250 ns         1 1JR      -0.526900
     21 O21         -4.0640     1.8530     0.2490 o          1 1JR      -0.515000
     22 H1           5.5840    -0.3220     0.1740 ha         1 1JR       0.118000
     23 H2           3.8130    -1.1730     1.7070 ha         1 1JR       0.118000
     24 H3           5.0000     1.3320    -1.5970 ha         1 1JR       0.118000
     25 H5           1.4900    -0.3810     1.4840 ha         1 1JR       0.114000
     26 H6           2.6730     2.1170    -1.8510 ha         1 1JR       0.114000
     27 H7          -0.0760    -2.2990     2.3490 ha         1 1JR       0.115000
     28 H8          -0.2480    -4.7500    -1.2090 h4         1 1JR       0.020100
     29 H9          -1.6720    -0.8600    -1.4210 h4         1 1JR       0.031100
     30 H10         -0.7040     0.0700     2.1910 h1         1 1JR       0.064700
     31 H11          0.6410     3.0140    -1.8220 hn         1 1JR       0.377000
     32 H12         -3.3420    -0.1040     1.7750 hn         1 1JR       0.333500
     33 H4           0.3560    -4.4890     1.2050 ha         1 1JR       0.125000
@<TRIPOS>BOND
     1     1     2 ar  
     2     1     3 ar  
     3     1    22 1   
     4     2     5 ar  
     5     2    23 1   
     6     3     6 ar  
     7     3    24 1   
     8     4     7 ar  
     9     4     8 ar  
    10     4    33 1   
    11     5    10 ar  
    12     5    25 1   
    13     6    10 ar  
    14     6    26 1   
    15     7    11 ar  
    16     7    27 1   
    17     8    17 ar  
    18     8    28 1   
    19     9    11 ar  
    20     9    17 ar  
    21     9    29 1   
    22    10    13 1   
    23    11    16 1   
    24    12    13 2   
    25    12    14 1   
    26    12    16 1   
    27    13    18 1   
    28    14    15 1   
    29    14    19 2   
    30    15    20 1   
    31    15    21 2   
    32    16    20 1   
    33    16    30 1   
    34    18    19 1   
    35    18    31 1   
    36    20    32 1   
@<TRIPOS>SUBSTRUCTURE
     1 1JR         1 TEMP              0 ****  ****    0 ROOT
