@<TRIPOS>MOLECULE
1JR
   33    36     1     0     0
SMALL
bcc


@<TRIPOS>ATOM
      1 C1           4.5280     0.0040     0.0380 ca         1 1JR      -0.114000
      2 C2           3.6070    -0.2720     1.0400 ca         1 1JR      -0.125000
      3 C3           4.1490     0.7760    -1.0520 ca         1 1JR      -0.125000
      4 C4           0.0460    -3.6310     0.5810 ca         1 1JR      -0.249300
      5 C5           2.3150     0.2220     0.9530 ca         1 1JR      -0.109500
      6 C6           2.8550     1.2660    -1.1460 ca         1 1JR      -0.109500
      7 C7          -0.2190    -2.4040     1.1710 ca         1 1JR      -0.081000
      8 C8          -0.4710    -3.8820    -0.6780 ca         1 1JR       0.408200
      9 C9          -1.4540    -1.8330    -0.7780 ca         1 1JR       0.431200
     10 C10          1.9250     0.9940    -0.1410 ca         1 1JR      -0.027000
     11 C11         -0.9830    -1.4750     0.4810 ca         1 1JR      -0.223600
     12 C12         -0.6300     1.0040     0.2920 cc         1 1JR      -0.280600
     13 C13          0.5540     1.4830    -0.2200 cd         1 1JR       0.000700
     14 C14         -1.6000     1.8870    -0.1540 cc         1 1JR       0.240800
     15 C15         -2.9300     1.4390     0.2990 c          1 1JR       0.650000
     16 C16         -1.2630    -0.1110     1.0610 c5         1 1JR       0.264300
     17 N17         -1.2120    -3.0030    -1.3490 nb         1 1JR      -0.664000
     18 N18          0.1880     2.6000    -0.9060 na         1 1JR       0.001400
     19 N19         -1.1110     2.8690    -0.8830 nd         1 1JR      -0.427800
     20 N20         -2.6670     0.2790     0.9600 ns         1 1JR      -0.593900
     21 O21         -4.0190     1.9550     0.1360 o          1 1JR      -0.590500
     22 H1           5.5370    -0.3820     0.1060 ha         1 1JR       0.136000
     23 H2           3.8960    -0.8670     1.8970 ha         1 1JR       0.136000
     24 H3           4.8610     0.9930    -1.8370 ha         1 1JR       0.136000
     25 H5           1.6140     0.0250     1.7540 ha         1 1JR       0.132000
     26 H6           2.5720     1.8450    -2.0160 ha         1 1JR       0.132000
     27 H7           0.1610    -2.1760     2.1590 ha         1 1JR       0.133000
     28 H8          -0.2840    -4.8320    -1.1670 h4         1 1JR       0.020100
     29 H9          -2.0630    -1.1390    -1.3490 h4         1 1JR       0.031100
     30 H10         -0.9540    -0.1030     2.1120 h1         1 1JR       0.064700
     31 H11          0.8080     3.2390    -1.3820 hn         1 1JR       0.326700
     32 H12         -3.3870    -0.2360     1.4420 hn         1 1JR       0.333500
     33 H4           0.6390    -4.3790     1.0890 ha         1 1JR       0.143000
@<TRIPOS>BOND
     1     1     2 ar  
     2     1     3 ar  
     3     1    22 1   
     4     2     5 ar  
     5     2    23 1   
     6     3     6 ar  
     7     3    24 1   
     8     4     7 ar  
     9     4     8 ar  
    10     4    33 1   
    11     5    10 ar  
    12     5    25 1   
    13     6    10 ar  
    14     6    26 1   
    15     7    11 ar  
    16     7    27 1   
    17     8    17 ar  
    18     8    28 1   
    19     9    11 ar  
    20     9    17 ar  
    21     9    29 1   
    22    10    13 1   
    23    11    16 1   
    24    12    13 2   
    25    12    14 1   
    26    12    16 1   
    27    13    18 1   
    28    14    15 1   
    29    14    19 2   
    30    15    20 1   
    31    15    21 2   
    32    16    20 1   
    33    16    30 1   
    34    18    19 1   
    35    18    31 1   
    36    20    32 1   
@<TRIPOS>SUBSTRUCTURE
     1 1JR         1 TEMP              0 ****  ****    0 ROOT
