@<TRIPOS>MOLECULE
1JS
   56    57     1     0     0
SMALL
No Charge or Current Charge


@<TRIPOS>ATOM
      1 C1          10.2220    -1.8080     0.6060 ca         1 1JS      -0.099000
      2 C2           9.1750    -2.6720     0.9730 ca         1 1JS      -0.113000
      3 C3           7.8390    -2.2810     0.7770 ca         1 1JS      -0.084500
      4 C7           6.1830    -0.6240     0.0140 cg         1 1JS      -0.086000
      5 C8           5.0210    -0.2960    -0.1620 ch         1 1JS      -0.120000
      6 C9           3.6600     0.0720    -0.3640 ca         1 1JS       0.058000
      7 C10          3.0500    -0.1300    -1.6130 ca         1 1JS      -0.100000
      8 C11          1.7070     0.2330    -1.8130 ca         1 1JS      -0.070500
      9 C12          0.9460     0.8050    -0.7670 ca         1 1JS      -0.144600
     10 C13          1.5720     1.0030     0.4890 ca         1 1JS      -0.070500
     11 C14          2.9160     0.6380     0.6840 ca         1 1JS      -0.100000
     12 C15         -0.5000     1.1820    -1.0210 c          1 1JS       0.614700
     13 C20         -3.5360     1.0700     0.5700 c3         1 1JS      -0.075400
     14 C21         -3.4910    -0.2720    -0.2070 c3         1 1JS      -0.159400
     15 C22         -4.5140    -1.2740     0.3370 c          1 1JS       0.595100
     16 C27         -7.4380    -4.8860    -0.1970 c3         1 1JS       0.167600
     17 O28         -7.0080    -6.2160    -0.5040 oh         1 1JS      -0.662000
     18 C4           7.5460    -1.0240     0.2140 ca         1 1JS       0.021000
     19 C5           8.5960    -0.1610    -0.1520 ca         1 1JS      -0.084500
     20 C6           9.9330    -0.5530     0.0440 ca         1 1JS      -0.113000
     21 O16         -1.0400     0.9970    -2.1040 o          1 1JS      -0.600100
     22 N17         -1.1860     1.7500     0.0330 ns         1 1JS      -0.487900
     23 C18         -2.6050     2.1790     0.0050 c3         1 1JS       0.031700
     24 O23         -4.3640    -1.8520     1.4040 o          1 1JS      -0.599100
     25 N24         -5.6030    -1.4960    -0.4760 ns         1 1JS      -0.510900
     26 C25         -6.6890    -2.4350    -0.1830 c3         1 1JS       0.105000
     27 C26         -6.2960    -3.8940    -0.4850 c3         1 1JS      -0.102400
     28 C29         -2.7760     3.5150     0.7900 c          1 1JS       0.593100
     29 O30         -1.9310     3.9410     1.5700 o          1 1JS      -0.569100
     30 N31         -3.9560     4.2070     0.5280 ns         1 1JS      -0.383400
     31 O32         -4.3690     5.3180     1.3620 oh         1 1JS      -0.417100
     32 H1          11.2560    -2.1110     0.7580 ha         1 1JS       0.115000
     33 H2           9.3990    -3.6440     1.4080 ha         1 1JS       0.116000
     34 H3           7.0320    -2.9530     1.0620 ha         1 1JS       0.119500
     35 H4           3.6160    -0.5680    -2.4320 ha         1 1JS       0.124500
     36 H5           1.2580     0.0660    -2.7910 ha         1 1JS       0.126000
     37 H6           1.0340     1.4360     1.3290 ha         1 1JS       0.126000
     38 H7           3.3800     0.7980     1.6550 ha         1 1JS       0.124500
     39 H8          -4.5710     1.4370     0.5670 hc         1 1JS       0.076700
     40 H9          -3.2780     0.8860     1.6210 hc         1 1JS       0.076700
     41 H10         -3.6920    -0.0690    -1.2660 hc         1 1JS       0.059700
     42 H11         -2.4930    -0.7110    -0.0980 hc         1 1JS       0.059700
     43 H12         -8.3130    -4.6180    -0.8050 h1         1 1JS       0.021200
     44 H13         -7.7240    -4.8120     0.8610 h1         1 1JS       0.021200
     45 H14         -7.7640    -6.8130    -0.3050 ho         1 1JS       0.447000
     46 H15          8.3780     0.8120    -0.5880 ha         1 1JS       0.119500
     47 H16         10.7420     0.1160    -0.2400 ha         1 1JS       0.116000
     48 H17         -0.6610     1.9110     0.8840 hn         1 1JS       0.327500
     49 H18         -2.8930     2.3870    -1.0340 h1         1 1JS       0.071700
     50 H19         -5.6370    -0.9740    -1.3440 hn         1 1JS       0.314500
     51 H20         -6.9710    -2.3380     0.8740 h1         1 1JS       0.052200
     52 H21         -7.5610    -2.1580    -0.7910 h1         1 1JS       0.052200
     53 H22         -5.4220    -4.1680     0.1170 hc         1 1JS       0.057200
     54 H23         -6.0030    -3.9760    -1.5390 hc         1 1JS       0.057200
     55 H24         -4.6890     3.7630    -0.0240 hn         1 1JS       0.340500
     56 H25         -4.5730     6.0340     0.7140 ho         1 1JS       0.445000
@<TRIPOS>BOND
     1     1     2 ar  
     2     1    20 ar  
     3     1    32 1   
     4     2     3 ar  
     5     2    33 1   
     6     3    18 ar  
     7     3    34 1   
     8     4     5 3   
     9     4    18 1   
    10     5     6 1   
    11     6     7 ar  
    12     6    11 ar  
    13     7     8 ar  
    14     7    35 1   
    15     8     9 ar  
    16     8    36 1   
    17     9    10 ar  
    18     9    12 1   
    19    10    11 ar  
    20    10    37 1   
    21    11    38 1   
    22    12    21 2   
    23    12    22 1   
    24    13    14 1   
    25    13    23 1   
    26    13    39 1   
    27    13    40 1   
    28    14    15 1   
    29    14    41 1   
    30    14    42 1   
    31    15    24 2   
    32    15    25 1   
    33    16    17 1   
    34    16    27 1   
    35    16    43 1   
    36    16    44 1   
    37    17    45 1   
    38    18    19 ar  
    39    19    20 ar  
    40    19    46 1   
    41    20    47 1   
    42    22    23 1   
    43    22    48 1   
    44    23    28 1   
    45    23    49 1   
    46    25    26 1   
    47    25    50 1   
    48    26    27 1   
    49    26    51 1   
    50    26    52 1   
    51    27    53 1   
    52    27    54 1   
    53    28    29 2   
    54    28    30 1   
    55    30    31 1   
    56    30    55 1   
    57    31    56 1   
@<TRIPOS>SUBSTRUCTURE
     1 1JS         1 TEMP              0 ****  ****    0 ROOT
