@<TRIPOS>MOLECULE
1JS
   56    57     1     0     0
SMALL
abcg2


@<TRIPOS>ATOM
      1 C1           9.7570    -2.2510     0.5390 ca         1 1JS      -0.099000
      2 C2           8.6330    -2.9970     0.8710 ca         1 1JS      -0.113000
      3 C3           7.3650    -2.4710     0.6820 ca         1 1JS      -0.084500
      4 C7           5.9140    -0.6350    -0.0350 cg         1 1JS      -0.086000
      5 C8           4.8120    -0.1680    -0.1990 ch         1 1JS      -0.120000
      6 C9           3.5180     0.3860    -0.3910 ca         1 1JS       0.058000
      7 C10          3.3700     1.7110    -0.8150 ca         1 1JS      -0.100000
      8 C11          2.1100     2.2480    -0.9950 ca         1 1JS      -0.070500
      9 C12          0.9710     1.4860    -0.7400 ca         1 1JS      -0.144600
     10 C13          1.1170     0.1610    -0.3310 ca         1 1JS      -0.070500
     11 C14          2.3750    -0.3870    -0.1600 ca         1 1JS      -0.100000
     12 C15         -0.3640     2.1200    -0.9410 c          1 1JS       0.614700
     13 C20         -3.6900     1.2990     0.4780 c3         1 1JS      -0.075400
     14 C21         -3.8740    -0.0670    -0.1640 c3         1 1JS      -0.159400
     15 C22         -4.8020    -0.9680     0.6280 c          1 1JS       0.595100
     16 C27         -7.0140    -5.3730     0.3490 c3         1 1JS       0.167600
     17 O28         -7.1490    -6.4520    -0.5490 oh         1 1JS      -0.662000
     18 C4           7.2120    -1.1830     0.1560 ca         1 1JS       0.021000
     19 C5           8.3480    -0.4370    -0.1760 ca         1 1JS      -0.084500
     20 C6           9.6110    -0.9720     0.0160 ca         1 1JS      -0.113000
     21 O16         -0.5200     3.0590    -1.7070 o          1 1JS      -0.600100
     22 N17         -1.3850     1.5970    -0.2340 ns         1 1JS      -0.487900
     23 C18         -2.7050     2.1700    -0.3010 c3         1 1JS       0.031700
     24 O23         -5.1550    -0.7130     1.7710 o          1 1JS      -0.599100
     25 N24         -5.1900    -2.0810    -0.0120 ns         1 1JS      -0.510900
     26 C25         -6.0050    -3.1000     0.6160 c3         1 1JS       0.105000
     27 C26         -6.1840    -4.2900    -0.3120 c3         1 1JS      -0.102400
     28 C29         -2.6980     3.5780     0.2980 c          1 1JS       0.593100
     29 O30         -2.0740     3.8530     1.3060 o          1 1JS      -0.569100
     30 N31         -3.4700     4.4410    -0.3750 ns         1 1JS      -0.383400
     31 O32         -3.7330     5.6760     0.1290 oh         1 1JS      -0.417100
     32 H1          10.7450    -2.6660     0.6890 ha         1 1JS       0.115000
     33 H2           8.7440    -3.9930     1.2800 ha         1 1JS       0.116000
     34 H3           6.4890    -3.0510     0.9400 ha         1 1JS       0.119500
     35 H4           4.2470     2.3160    -0.9990 ha         1 1JS       0.124500
     36 H5           2.0100     3.2730    -1.3230 ha         1 1JS       0.126000
     37 H6           0.2520    -0.4680    -0.1660 ha         1 1JS       0.126000
     38 H7           2.4780    -1.4180     0.1490 ha         1 1JS       0.124500
     39 H8          -4.6500     1.8180     0.5200 hc         1 1JS       0.076700
     40 H9          -3.3450     1.1990     1.5090 hc         1 1JS       0.076700
     41 H10         -4.2540     0.0450    -1.1830 hc         1 1JS       0.059700
     42 H11         -2.9140    -0.5830    -0.2630 hc         1 1JS       0.059700
     43 H12         -7.9910    -4.9600     0.6310 h1         1 1JS       0.021200
     44 H13         -6.5220    -5.6840     1.2810 h1         1 1JS       0.021200
     45 H14         -7.6820    -7.1300    -0.1250 ho         1 1JS       0.447000
     46 H15          8.2340     0.5590    -0.5830 ha         1 1JS       0.119500
     47 H16         10.4850    -0.3890    -0.2430 ha         1 1JS       0.116000
     48 H17         -1.1790     1.0020     0.5530 hn         1 1JS       0.327500
     49 H18         -3.0200     2.2140    -1.3480 h1         1 1JS       0.071700
     50 H19         -4.8650    -2.2420    -0.9520 hn         1 1JS       0.314500
     51 H20         -5.5350    -3.4240     1.5490 h1         1 1JS       0.052200
     52 H21         -6.9830    -2.6860     0.8820 h1         1 1JS       0.052200
     53 H22         -5.2050    -4.6950    -0.5840 hc         1 1JS       0.057200
     54 H23         -6.6740    -3.9680    -1.2360 hc         1 1JS       0.057200
     55 H24         -3.9900     4.1900    -1.2040 hn         1 1JS       0.340500
     56 H25         -3.0600     6.2670    -0.2330 ho         1 1JS       0.445000
@<TRIPOS>BOND
     1     1     2 ar  
     2     1    20 ar  
     3     1    32 1   
     4     2     3 ar  
     5     2    33 1   
     6     3    18 ar  
     7     3    34 1   
     8     4     5 3   
     9     4    18 1   
    10     5     6 1   
    11     6     7 ar  
    12     6    11 ar  
    13     7     8 ar  
    14     7    35 1   
    15     8     9 ar  
    16     8    36 1   
    17     9    10 ar  
    18     9    12 1   
    19    10    11 ar  
    20    10    37 1   
    21    11    38 1   
    22    12    21 2   
    23    12    22 1   
    24    13    14 1   
    25    13    23 1   
    26    13    39 1   
    27    13    40 1   
    28    14    15 1   
    29    14    41 1   
    30    14    42 1   
    31    15    24 2   
    32    15    25 1   
    33    16    17 1   
    34    16    27 1   
    35    16    43 1   
    36    16    44 1   
    37    17    45 1   
    38    18    19 ar  
    39    19    20 ar  
    40    19    46 1   
    41    20    47 1   
    42    22    23 1   
    43    22    48 1   
    44    23    28 1   
    45    23    49 1   
    46    25    26 1   
    47    25    50 1   
    48    26    27 1   
    49    26    51 1   
    50    26    52 1   
    51    27    53 1   
    52    27    54 1   
    53    28    29 2   
    54    28    30 1   
    55    30    31 1   
    56    30    55 1   
    57    31    56 1   
@<TRIPOS>SUBSTRUCTURE
     1 1JS         1 TEMP              0 ****  ****    0 ROOT
