@<TRIPOS>MOLECULE
1JT
   45    48     1     0     0
SMALL
bcc


@<TRIPOS>ATOM
      1 C1          -3.3990     0.1830    -0.6640 ca         1 1JT      -0.092300
      2 C2          -2.5750    -0.6120     0.1660 ca         1 1JT      -0.054300
      3 C3          -3.0970     1.5210    -0.8790 ca         1 1JT      -0.072000
      4 C4          -1.4560    -0.0640     0.7820 ca         1 1JT      -0.130000
      5 C5          -1.1740     1.2750     0.5560 ca         1 1JT      -0.074200
      6 C6          -1.9780     2.0770    -0.2670 ca         1 1JT       0.065400
      7 N7          -1.4750     3.3590    -0.3130 nc         1 1JT      -0.573100
      8 C8          -0.4200     3.3230     0.4490 cd         1 1JT       0.414700
      9 N9          -0.1820     2.1090     1.0080 na         1 1JT      -0.155300
     10 C10          0.9480     1.7390     1.8330 c3         1 1JT       0.109600
     11 C11          1.9110     0.8340     1.1090 ca         1 1JT      -0.155300
     12 C12          2.1880    -0.4420     1.5900 ca         1 1JT      -0.080000
     13 C13          3.0620    -1.3060     0.9450 ca         1 1JT      -0.107300
     14 C14          3.6780    -0.8640    -0.2350 ca         1 1JT       0.151100
     15 C15          3.4150     0.4100    -0.7300 ca         1 1JT      -0.213000
     16 C16          2.5370     1.2490    -0.0570 ca         1 1JT      -0.069000
     17 C17         -2.8630    -2.0800     0.3760 c6         1 1JT      -0.029100
     18 C18         -4.2940    -2.4680     0.0350 c6         1 1JT      -0.072400
     19 C19         -4.6710    -1.9130    -1.3300 c6         1 1JT      -0.073400
     20 C20         -4.6440    -0.3910    -1.3010 c6         1 1JT      -0.026100
     21 O21          4.5120    -1.7420    -0.8240 os         1 1JT      -0.316900
     22 C22          5.1440    -1.3750    -2.0340 c3         1 1JT       0.123700
     23 C23          3.3390    -2.6790     1.4790 c3         1 1JT      -0.033800
     24 H1          -3.7290     2.1290    -1.5170 ha         1 1JT       0.143000
     25 H2          -0.8290    -0.6790     1.4170 ha         1 1JT       0.134000
     26 H3           0.2340     4.1610     0.6480 h5         1 1JT       0.056800
     27 H4           1.4370     2.6640     2.1420 h1         1 1JT       0.061700
     28 H5           0.5840     1.2550     2.7410 h1         1 1JT       0.061700
     29 H6           1.7040    -0.7780     2.5010 ha         1 1JT       0.129000
     30 H7           3.8850     0.7660    -1.6370 ha         1 1JT       0.138000
     31 H8           2.3470     2.2370    -0.4590 ha         1 1JT       0.133000
     32 H9          -2.1810    -2.6630    -0.2530 hc         1 1JT       0.045700
     33 H10         -2.6270    -2.3550     1.4060 hc         1 1JT       0.045700
     34 H11         -4.3950    -3.5550     0.0560 hc         1 1JT       0.041200
     35 H12         -4.9800    -2.0740     0.7910 hc         1 1JT       0.041200
     36 H13         -3.9670    -2.2860    -2.0810 hc         1 1JT       0.041700
     37 H14         -5.6620    -2.2550    -1.6320 hc         1 1JT       0.041700
     38 H15         -5.5180    -0.0350    -0.7430 hc         1 1JT       0.046200
     39 H16         -4.7570     0.0090    -2.3120 hc         1 1JT       0.046200
     40 H17          5.7480    -2.2260    -2.3380 h1         1 1JT       0.042033
     41 H18          4.4200    -1.1570    -2.8230 h1         1 1JT       0.042033
     42 H19          5.7980    -0.5080    -1.9080 h1         1 1JT       0.042033
     43 H20          4.3970    -2.8200     1.7050 hc         1 1JT       0.043700
     44 H21          2.7780    -2.8600     2.3950 hc         1 1JT       0.043700
     45 H22          3.0620    -3.4540     0.7620 hc         1 1JT       0.043700
@<TRIPOS>BOND
     1     1     2 ar  
     2     1     3 ar  
     3     1    20 1   
     4     2     4 ar  
     5     2    17 1   
     6     3     6 ar  
     7     3    24 1   
     8     4     5 ar  
     9     4    25 1   
    10     5     6 ar  
    11     5     9 1   
    12     6     7 1   
    13     7     8 2   
    14     8     9 1   
    15     8    26 1   
    16     9    10 1   
    17    10    11 1   
    18    10    27 1   
    19    10    28 1   
    20    11    12 ar  
    21    11    16 ar  
    22    12    13 ar  
    23    12    29 1   
    24    13    14 ar  
    25    13    23 1   
    26    14    15 ar  
    27    14    21 1   
    28    15    16 ar  
    29    15    30 1   
    30    16    31 1   
    31    17    18 1   
    32    17    32 1   
    33    17    33 1   
    34    18    19 1   
    35    18    34 1   
    36    18    35 1   
    37    19    20 1   
    38    19    36 1   
    39    19    37 1   
    40    20    38 1   
    41    20    39 1   
    42    21    22 1   
    43    22    40 1   
    44    22    41 1   
    45    22    42 1   
    46    23    43 1   
    47    23    44 1   
    48    23    45 1   
@<TRIPOS>SUBSTRUCTURE
     1 1JT         1 TEMP              0 ****  ****    0 ROOT
