@<TRIPOS>MOLECULE
1JT
   45    48     1     0     0
SMALL
No Charge or Current Charge


@<TRIPOS>ATOM
      1 C1          -3.4200     0.2830    -0.6680 ca         1 1JT      -0.092300
      2 C2          -2.5180    -0.5520     0.0530 ca         1 1JT      -0.054300
      3 C3          -3.1940     1.6780    -0.7290 ca         1 1JT      -0.054000
      4 C4          -1.3950     0.0180     0.6910 ca         1 1JT      -0.112000
      5 C5          -1.2110     1.4050     0.5980 ca         1 1JT      -0.074200
      6 C6          -2.0720     2.2160    -0.0830 ca         1 1JT       0.065400
      7 N7          -1.6800     3.5450    -0.0340 nc         1 1JT      -0.573100
      8 C8          -0.5490     3.4900     0.7040 cd         1 1JT       0.414700
      9 N9          -0.2170     2.1890     1.1160 na         1 1JT      -0.184600
     10 C10          0.9250     1.7200     1.9170 c3         1 1JT       0.138900
     11 C11          1.8650     0.7740     1.1700 ca         1 1JT      -0.155300
     12 C12          2.3780    -0.3620     1.8230 ca         1 1JT      -0.062000
     13 C13          3.2410    -1.2510     1.1520 ca         1 1JT      -0.107300
     14 C14          3.5990    -0.9990    -0.1910 ca         1 1JT       0.151100
     15 C15          3.0900     0.1440    -0.8440 ca         1 1JT      -0.195000
     16 C16          2.2300     1.0240    -0.1670 ca         1 1JT      -0.051000
     17 C17         -2.7200    -2.0700     0.1310 c6         1 1JT      -0.029100
     18 C18         -4.1440    -2.5240    -0.2620 c6         1 1JT      -0.072400
     19 C19         -4.5940    -1.8280    -1.5620 c6         1 1JT      -0.073400
     20 C20         -4.6570    -0.2970    -1.3660 c6         1 1JT      -0.026100
     21 O21          4.4460    -1.8890    -0.8260 os         1 1JT      -0.340100
     22 C22          4.8630    -1.7160    -2.1920 c3         1 1JT       0.146900
     23 C23          3.7780    -2.4790     1.8800 c3         1 1JT      -0.033800
     24 H1          -3.8770     2.3290    -1.2680 ha         1 1JT       0.125000
     25 H2          -0.6900    -0.6040     1.2360 ha         1 1JT       0.116000
     26 H3           0.0730     4.3360     0.9720 h5         1 1JT       0.056800
     27 H4           1.4970     2.5930     2.2560 h1         1 1JT       0.061700
     28 H5           0.5300     1.2200     2.8100 h1         1 1JT       0.061700
     29 H6           2.1020    -0.5580     2.8570 ha         1 1JT       0.111000
     30 H7           3.3480     0.3670    -1.8750 ha         1 1JT       0.120000
     31 H8           1.8480     1.9000    -0.6870 ha         1 1JT       0.115000
     32 H9          -1.9910    -2.5550    -0.5330 hc         1 1JT       0.045700
     33 H10         -2.4930    -2.4270     1.1450 hc         1 1JT       0.045700
     34 H11         -4.1670    -3.6150    -0.3870 hc         1 1JT       0.041200
     35 H12         -4.8470    -2.2850     0.5480 hc         1 1JT       0.041200
     36 H13         -3.8930    -2.0700    -2.3730 hc         1 1JT       0.041700
     37 H14         -5.5780    -2.2060    -1.8740 hc         1 1JT       0.041700
     38 H15         -5.5460    -0.0480    -0.7690 hc         1 1JT       0.046200
     39 H16         -4.8000     0.1880    -2.3410 hc         1 1JT       0.046200
     40 H17          5.5300    -2.5340    -2.4920 h1         1 1JT       0.042033
     41 H18          3.9980    -1.7180    -2.8670 h1         1 1JT       0.042033
     42 H19          5.4070    -0.7710    -2.3170 h1         1 1JT       0.042033
     43 H20          4.8740    -2.4630     1.9200 hc         1 1JT       0.043700
     44 H21          3.4120    -2.5360     2.9120 hc         1 1JT       0.043700
     45 H22          3.4740    -3.4010     1.3710 hc         1 1JT       0.043700
@<TRIPOS>BOND
     1     1     2 ar  
     2     1     3 ar  
     3     1    20 1   
     4     2     4 ar  
     5     2    17 1   
     6     3     6 ar  
     7     3    24 1   
     8     4     5 ar  
     9     4    25 1   
    10     5     6 ar  
    11     5     9 1   
    12     6     7 1   
    13     7     8 2   
    14     8     9 1   
    15     8    26 1   
    16     9    10 1   
    17    10    11 1   
    18    10    27 1   
    19    10    28 1   
    20    11    12 ar  
    21    11    16 ar  
    22    12    13 ar  
    23    12    29 1   
    24    13    14 ar  
    25    13    23 1   
    26    14    15 ar  
    27    14    21 1   
    28    15    16 ar  
    29    15    30 1   
    30    16    31 1   
    31    17    18 1   
    32    17    32 1   
    33    17    33 1   
    34    18    19 1   
    35    18    34 1   
    36    18    35 1   
    37    19    20 1   
    38    19    36 1   
    39    19    37 1   
    40    20    38 1   
    41    20    39 1   
    42    21    22 1   
    43    22    40 1   
    44    22    41 1   
    45    22    42 1   
    46    23    43 1   
    47    23    44 1   
    48    23    45 1   
@<TRIPOS>SUBSTRUCTURE
     1 1JT         1 TEMP              0 ****  ****    0 ROOT
