@<TRIPOS>MOLECULE
1JU
   41    45     1     0     0
SMALL
abcg2


@<TRIPOS>ATOM
      1 C1           0.9960     1.8510     1.5460 c3         1 1JU       0.134900
      2 C2           2.0100     1.0090     0.8110 ca         1 1JU      -0.119300
      3 C3          -4.7310    -0.6780    -1.0070 c6         1 1JU      -0.026100
      4 C4          -3.4630    -0.0250    -0.5060 ca         1 1JU      -0.092300
      5 C5          -4.7330    -2.1920    -0.8540 c6         1 1JU      -0.073400
      6 C6          -4.3080    -2.5720     0.5560 c6         1 1JU      -0.072400
      7 C7          -2.8740    -2.1270     0.8070 c6         1 1JU      -0.030100
      8 C8          -2.6010    -0.7010     0.3870 ca         1 1JU      -0.051300
      9 C9          -1.4590    -0.0760     0.8750 ca         1 1JU      -0.115000
     10 C10         -3.1790     1.2730    -0.9090 ca         1 1JU      -0.053000
     11 C11         -1.1930     1.2190     0.4580 ca         1 1JU      -0.073200
     12 N12         -0.1870     2.1070     0.7500 na         1 1JU      -0.187600
     13 C13         -0.4570     3.2360     0.0440 cc         1 1JU       0.415700
     14 C14         -2.0370     1.9040    -0.4280 ca         1 1JU       0.066400
     15 N15         -1.5450     3.1680    -0.6660 nd         1 1JU      -0.570100
     16 C16          2.6930     1.5400    -0.2740 ca         1 1JU      -0.088000
     17 C17          2.2490    -0.3100     1.2210 ca         1 1JU      -0.080000
     18 O18          4.6780    -1.4310    -1.0970 os         1 1JU      -0.341100
     19 C19          3.8480    -0.4960    -0.5750 ca         1 1JU       0.064100
     20 C20          4.6630    -2.5250    -0.1880 c5         1 1JU       0.373600
     21 O21          3.5640    -2.3170     0.6910 os         1 1JU      -0.343100
     22 C22          3.1740    -1.0330     0.5080 ca         1 1JU       0.051100
     23 C23          3.6280     0.7930    -0.9960 ca         1 1JU      -0.095000
     24 H1           0.6950     1.3620     2.4730 h1         1 1JU       0.065200
     25 H2           1.4190     2.8170     1.8190 h1         1 1JU       0.065200
     26 H4          -4.8980    -0.4010    -2.0510 hc         1 1JU       0.046200
     27 H5          -5.7270    -2.5820    -1.0810 hc         1 1JU       0.042200
     28 H6          -4.0460    -2.6440    -1.5760 hc         1 1JU       0.042200
     29 H7          -4.9800    -2.0980     1.2790 hc         1 1JU       0.041700
     30 H8          -4.3900    -3.6490     0.7120 hc         1 1JU       0.041700
     31 H9          -2.6140    -2.2520     1.8610 hc         1 1JU       0.046700
     32 H10         -2.1970    -2.7880     0.2540 hc         1 1JU       0.046700
     33 H11         -0.8080    -0.5990     1.5650 ha         1 1JU       0.113000
     34 H12         -3.8420     1.7910    -1.5930 ha         1 1JU       0.126000
     35 H13          0.1980     4.0940     0.1010 h5         1 1JU       0.056800
     36 H14          2.5080     2.5640    -0.5750 ha         1 1JU       0.120000
     37 H15          1.7270    -0.7400     2.0670 ha         1 1JU       0.133000
     38 H16          4.5260    -3.4580    -0.7350 h2         1 1JU       0.066700
     39 H17          4.1550     1.2160    -1.8400 ha         1 1JU       0.138000
     40 H18          5.5970    -2.5460     0.3820 h2         1 1JU       0.066700
     41 H3          -5.5800    -0.2680    -0.4500 hc         1 1JU       0.046200
@<TRIPOS>BOND
     1     1     2 1   
     2     1    12 1   
     3     1    24 1   
     4     1    25 1   
     5     2    16 ar  
     6     2    17 ar  
     7     3     4 1   
     8     3     5 1   
     9     3    26 1   
    10     3    41 1   
    11     4     8 ar  
    12     4    10 ar  
    13     5     6 1   
    14     5    27 1   
    15     5    28 1   
    16     6     7 1   
    17     6    29 1   
    18     6    30 1   
    19     7     8 1   
    20     7    31 1   
    21     7    32 1   
    22     8     9 ar  
    23     9    11 ar  
    24     9    33 1   
    25    10    14 ar  
    26    10    34 1   
    27    11    12 1   
    28    11    14 ar  
    29    12    13 1   
    30    13    15 2   
    31    13    35 1   
    32    14    15 1   
    33    16    23 ar  
    34    16    36 1   
    35    17    22 ar  
    36    17    37 1   
    37    18    19 1   
    38    18    20 1   
    39    19    22 ar  
    40    19    23 ar  
    41    20    21 1   
    42    20    38 1   
    43    20    40 1   
    44    21    22 1   
    45    23    39 1   
@<TRIPOS>SUBSTRUCTURE
     1 1JU         1 TEMP              0 ****  ****    0 ROOT
