@<TRIPOS>MOLECULE
1JU
   41    45     1     0     0
SMALL
No Charge or Current Charge


@<TRIPOS>ATOM
      1 C1           0.9870     1.8650     1.5720 c3         1 1JU       0.134900
      2 C2           1.9460     0.9490     0.8120 ca         1 1JU      -0.119300
      3 C3          -4.7440    -0.5960    -1.0200 c6         1 1JU      -0.026100
      4 C4          -3.4740     0.0780    -0.4830 ca         1 1JU      -0.092300
      5 C5          -4.6760    -2.1390    -1.0070 c6         1 1JU      -0.073400
      6 C6          -4.1440    -2.6480     0.3470 c6         1 1JU      -0.072400
      7 C7          -2.7040    -2.1420     0.5890 c6         1 1JU      -0.030100
      8 C8          -2.5210    -0.6480     0.2920 ca         1 1JU      -0.051300
      9 C9          -1.3680     0.0050     0.7790 ca         1 1JU      -0.115000
     10 C10         -3.2670     1.4520    -0.7500 ca         1 1JU      -0.053000
     11 C11         -1.2090     1.3650     0.4840 ca         1 1JU      -0.073200
     12 N12         -0.2160     2.2390     0.8110 na         1 1JU      -0.187600
     13 C13         -0.5470     3.4740     0.2520 cc         1 1JU       0.415700
     14 C14         -2.1150     2.0730    -0.2520 ca         1 1JU       0.066400
     15 N15         -1.7240     3.4020    -0.4090 nd         1 1JU      -0.570100
     16 C16          2.2390     1.1760    -0.5590 ca         1 1JU      -0.088000
     17 C17          2.5540    -0.1370     1.4840 ca         1 1JU      -0.080000
     18 O18          4.5700    -1.6490    -1.0660 os         1 1JU      -0.341100
     19 C19          3.6960    -0.7430    -0.5580 ca         1 1JU       0.064100
     20 C20          4.7900    -2.5600     0.0690 c5         1 1JU       0.373600
     21 O21          4.0900    -2.0400     1.2550 os         1 1JU      -0.343100
     22 C22          3.4230    -0.9650     0.7620 ca         1 1JU       0.051100
     23 C23          3.1230     0.3250    -1.2560 ca         1 1JU      -0.095000
     24 H1           0.6670     1.3770     2.5020 h1         1 1JU       0.065200
     25 H2           1.5220     2.7810     1.8530 h1         1 1JU       0.065200
     26 H4          -4.9490    -0.2500    -2.0420 hc         1 1JU       0.046200
     27 H5          -5.6730    -2.5580    -1.2050 hc         1 1JU       0.042200
     28 H6          -4.0210    -2.4890    -1.8170 hc         1 1JU       0.042200
     29 H7          -4.8010    -2.3000     1.1570 hc         1 1JU       0.041700
     30 H8          -4.1640    -3.7460     0.3760 hc         1 1JU       0.041700
     31 H9          -2.4140    -2.3560     1.6270 hc         1 1JU       0.046700
     32 H10         -2.0110    -2.7120    -0.0440 hc         1 1JU       0.046700
     33 H11         -0.6250    -0.5350     1.3610 ha         1 1JU       0.113000
     34 H12         -3.9860     2.0220    -1.3340 ha         1 1JU       0.126000
     35 H13          0.0830     4.3490     0.3560 h5         1 1JU       0.056800
     36 H14          1.7840     2.0120    -1.0870 ha         1 1JU       0.120000
     37 H15          2.3570    -0.3350     2.5350 ha         1 1JU       0.133000
     38 H16          4.3850    -3.5480    -0.1810 h2         1 1JU       0.066700
     39 H17          3.3530     0.4920    -2.3050 ha         1 1JU       0.138000
     40 H18          5.8630    -2.6350     0.2780 h2         1 1JU       0.066700
     41 H3          -5.5980    -0.2680    -0.4110 hc         1 1JU       0.046200
@<TRIPOS>BOND
     1     1     2 1   
     2     1    12 1   
     3     1    24 1   
     4     1    25 1   
     5     2    16 ar  
     6     2    17 ar  
     7     3     4 1   
     8     3     5 1   
     9     3    26 1   
    10     3    41 1   
    11     4     8 ar  
    12     4    10 ar  
    13     5     6 1   
    14     5    27 1   
    15     5    28 1   
    16     6     7 1   
    17     6    29 1   
    18     6    30 1   
    19     7     8 1   
    20     7    31 1   
    21     7    32 1   
    22     8     9 ar  
    23     9    11 ar  
    24     9    33 1   
    25    10    14 ar  
    26    10    34 1   
    27    11    12 1   
    28    11    14 ar  
    29    12    13 1   
    30    13    15 2   
    31    13    35 1   
    32    14    15 1   
    33    16    23 ar  
    34    16    36 1   
    35    17    22 ar  
    36    17    37 1   
    37    18    19 1   
    38    18    20 1   
    39    19    22 ar  
    40    19    23 ar  
    41    20    21 1   
    42    20    38 1   
    43    20    40 1   
    44    21    22 1   
    45    23    39 1   
@<TRIPOS>SUBSTRUCTURE
     1 1JU         1 TEMP              0 ****  ****    0 ROOT
