@<TRIPOS>MOLECULE
1JV
   55    59     1     0     0
SMALL
No Charge or Current Charge


@<TRIPOS>ATOM
      1 C1          11.4960    62.4120    20.9450 c3         1 1JV      -0.102100
      2 C2          11.5730    62.1020    22.4590 c3         1 1JV       0.163000
      3 C3          12.0610    60.6510    22.6920 c3         1 1JV      -0.102100
      4 O4          10.2380    62.1900    22.9700 oh         1 1JV      -0.658000
      5 C5          12.4480    63.1450    23.2190 c3         1 1JV       0.058600
      6 N6          13.8670    63.1940    22.8130 na         1 1JV       0.122800
      7 C7          14.8900    62.3900    23.3060 cc         1 1JV      -0.142000
      8 C8          16.0080    62.8190    22.6410 cd         1 1JV      -0.166000
      9 C9          15.5830    63.8710    21.7950 cd         1 1JV       0.262900
     10 N10         14.2910    64.1210    21.8860 nc         1 1JV      -0.518800
     11 C11         17.3780    62.2900    22.7870 ca         1 1JV       0.055000
     12 C12         18.4400    62.8250    22.0440 ca         1 1JV      -0.132000
     13 C13         19.7390    62.3110    22.1760 ca         1 1JV      -0.054000
     14 C14         20.0380    61.2420    23.0640 ca         1 1JV      -0.177500
     15 C15         18.9550    60.7270    23.8370 ca         1 1JV       0.143100
     16 O16         19.0580    59.7220    24.7710 os         1 1JV      -0.362100
     17 C17         20.1910    59.5740    25.6320 c3         1 1JV       0.169600
     18 C18         21.2690    58.8170    24.8630 c3         1 1JV      -0.032100
     19 C19         21.9400    59.6660    23.8280 cc         1 1JV      -0.231300
     20 C20         21.4320    60.7110    23.0800 cd         1 1JV       0.369500
     21 N21         22.3720    61.2870    22.2330 nd         1 1JV      -0.652000
     22 C22         23.5590    60.6900    22.3290 cc         1 1JV       0.373400
     23 S23         23.6200    59.3800    23.4730 ss         1 1JV       0.084600
     24 C24         24.7770    61.0150    21.5920 cc         1 1JV       0.412500
     25 N25         25.9660    60.4310    21.6840 nd         1 1JV      -0.696000
     26 C26         26.7690    61.1140    20.7880 cd         1 1JV       0.538900
     27 N27         26.1430    62.0890    20.1430 nc         1 1JV      -0.516800
     28 N28         24.8800    62.0290    20.6430 na         1 1JV      -0.055700
     29 C29         23.8590    62.9860    20.1510 c3         1 1JV       0.025600
     30 C30         23.0290    62.4830    18.9480 c3         1 1JV       0.280000
     31 F31         22.5250    61.2460    19.1640 f          1 1JV      -0.104667
     32 F32         21.9910    63.3160    18.7090 f          1 1JV      -0.104667
     33 F33         23.7840    62.4320    17.8270 f          1 1JV      -0.104667
     34 C34         17.6560    61.2390    23.6750 ca         1 1JV      -0.142000
     35 H1          11.1490    63.4380    20.7740 hc         1 1JV       0.050033
     36 H2          12.4780    62.3000    20.4700 hc         1 1JV       0.050033
     37 H3          10.8010    61.7290    20.4410 hc         1 1JV       0.050033
     38 H4          12.1440    60.4290    23.7630 hc         1 1JV       0.050033
     39 H5          11.3670    59.9290    22.2460 hc         1 1JV       0.050033
     40 H6          13.0450    60.4900    22.2350 hc         1 1JV       0.050033
     41 H7          10.2190    61.7110    23.8270 ho         1 1JV       0.438000
     42 H8          12.4160    62.9280    24.2930 h1         1 1JV       0.071200
     43 H9          12.0170    64.1430    23.0770 h1         1 1JV       0.071200
     44 H10         14.7310    61.6190    24.0490 h4         1 1JV       0.154000
     45 H11         16.1800    64.4660    21.1140 h4         1 1JV       0.042100
     46 H12         18.2710    63.6390    21.3460 ha         1 1JV       0.119000
     47 H13         20.5110    62.7580    21.5560 ha         1 1JV       0.125000
     48 H14         20.5640    60.5450    25.9830 h1         1 1JV       0.058200
     49 H15         19.9090    58.9790    26.5100 h1         1 1JV       0.058200
     50 H16         20.8300    57.9250    24.3980 hc         1 1JV       0.069200
     51 H17         22.0130    58.4560    25.5840 hc         1 1JV       0.069200
     52 H18         27.8130    60.8600    20.6410 h5         1 1JV       0.072100
     53 H19         24.3740    63.9040    19.8440 h1         1 1JV       0.112200
     54 H20         23.1890    63.2740    20.9680 h1         1 1JV       0.112200
     55 H21         16.8570    60.8100    24.2720 ha         1 1JV       0.122000
@<TRIPOS>BOND
     1     1     2 1   
     2     1    35 1   
     3     1    36 1   
     4     1    37 1   
     5     2     3 1   
     6     2     4 1   
     7     2     5 1   
     8     3    38 1   
     9     3    39 1   
    10     3    40 1   
    11     4    41 1   
    12     5     6 1   
    13     5    42 1   
    14     5    43 1   
    15     6     7 1   
    16     6    10 1   
    17     7     8 2   
    18     7    44 1   
    19     8     9 1   
    20     8    11 1   
    21     9    10 2   
    22     9    45 1   
    23    11    12 ar  
    24    11    34 ar  
    25    12    13 ar  
    26    12    46 1   
    27    13    14 ar  
    28    13    47 1   
    29    14    15 ar  
    30    14    20 1   
    31    15    16 1   
    32    15    34 ar  
    33    16    17 1   
    34    17    18 1   
    35    17    48 1   
    36    17    49 1   
    37    18    19 1   
    38    18    50 1   
    39    18    51 1   
    40    19    20 2   
    41    19    23 1   
    42    20    21 1   
    43    21    22 2   
    44    22    23 1   
    45    22    24 1   
    46    24    25 2   
    47    24    28 1   
    48    25    26 1   
    49    26    27 2   
    50    26    52 1   
    51    27    28 1   
    52    28    29 1   
    53    29    30 1   
    54    29    53 1   
    55    29    54 1   
    56    30    31 1   
    57    30    32 1   
    58    30    33 1   
    59    34    55 1   
@<TRIPOS>SUBSTRUCTURE
     1 1JV         1 TEMP              0 ****  ****    0 ROOT
