@<TRIPOS>MOLECULE
1JV
   55    59     1     0     0
SMALL
abcg2


@<TRIPOS>ATOM
      1 C1          11.4640    62.3390    21.0410 c3         1 1JV      -0.102100
      2 C2          11.6280    62.1230    22.5380 c3         1 1JV       0.163000
      3 C3          12.1260    60.7150    22.8440 c3         1 1JV      -0.102100
      4 O4          10.3210    62.3180    23.1100 oh         1 1JV      -0.658000
      5 C5          12.5350    63.2020    23.1750 c3         1 1JV       0.058600
      6 N6          13.9160    63.1870    22.7310 na         1 1JV       0.122800
      7 C7          14.9370    62.4760    23.2560 cc         1 1JV      -0.142000
      8 C8          16.0660    62.7430    22.4930 cd         1 1JV      -0.166000
      9 C9          15.6000    63.6520    21.5120 cd         1 1JV       0.262900
     10 N10         14.3060    63.9130    21.6590 nc         1 1JV      -0.518800
     11 C11         17.4170    62.2160    22.6700 ca         1 1JV       0.055000
     12 C12         18.5220    62.8180    22.0510 ca         1 1JV      -0.132000
     13 C13         19.7930    62.3080    22.2290 ca         1 1JV      -0.054000
     14 C14         20.0510    61.1790    23.0260 ca         1 1JV      -0.177500
     15 C15         18.9390    60.5950    23.6600 ca         1 1JV       0.143100
     16 O16         19.0140    59.4770    24.4460 os         1 1JV      -0.362100
     17 C17         20.0230    59.4490    25.4650 c3         1 1JV       0.169600
     18 C18         21.3090    58.8360    24.9560 c3         1 1JV      -0.032100
     19 C19         21.9510    59.6600    23.8880 cc         1 1JV      -0.231300
     20 C20         21.4280    60.6600    23.0900 cd         1 1JV       0.369500
     21 N21         22.3480    61.2170    22.2280 nd         1 1JV      -0.652000
     22 C22         23.5270    60.6820    22.3410 cc         1 1JV       0.373400
     23 S23         23.6230    59.4280    23.5330 ss         1 1JV       0.084600
     24 C24         24.6960    61.0570    21.5720 cc         1 1JV       0.412500
     25 N25         25.8680    60.4350    21.6350 nd         1 1JV      -0.696000
     26 C26         26.6470    61.1300    20.7710 cd         1 1JV       0.538900
     27 N27         26.0380    62.1410    20.1800 nc         1 1JV      -0.516800
     28 N28         24.7840    62.0910    20.6980 na         1 1JV      -0.055700
     29 C29         23.7870    63.0500    20.2860 c3         1 1JV       0.025600
     30 C30         23.0920    62.6300    19.0010 c3         1 1JV       0.280000
     31 F31         22.5590    61.3960    19.0820 f          1 1JV      -0.104667
     32 F32         22.0920    63.4880    18.7240 f          1 1JV      -0.104667
     33 F33         23.9280    62.6260    17.9450 f          1 1JV      -0.104667
     34 C34         17.6590    61.1030    23.4740 ca         1 1JV      -0.142000
     35 H1          11.0620    63.3330    20.8410 hc         1 1JV       0.050033
     36 H2          12.4230    62.2460    20.5330 hc         1 1JV       0.050033
     37 H3          10.7790    61.5930    20.6350 hc         1 1JV       0.050033
     38 H4          12.2160    60.5640    23.9230 hc         1 1JV       0.050033
     39 H5          11.4210    59.9840    22.4470 hc         1 1JV       0.050033
     40 H6          13.1010    60.5330    22.3910 hc         1 1JV       0.050033
     41 H7          10.3560    62.0740    24.0440 ho         1 1JV       0.438000
     42 H8          12.5340    63.0650    24.2570 h1         1 1JV       0.071200
     43 H9          12.1280    64.1860    22.9490 h1         1 1JV       0.071200
     44 H10         14.7960    61.8570    24.1250 h4         1 1JV       0.154000
     45 H11         16.1540    64.1170    20.7120 h4         1 1JV       0.042100
     46 H12         18.3860    63.6960    21.4340 ha         1 1JV       0.119000
     47 H13         20.6260    62.7820    21.7320 ha         1 1JV       0.125000
     48 H14         20.1880    60.4610    25.8430 h1         1 1JV       0.058200
     49 H15         19.6140    58.8370    26.2680 h1         1 1JV       0.058200
     50 H16         21.0990    57.8290    24.5820 hc         1 1JV       0.069200
     51 H17         21.9970    58.7190    25.7980 hc         1 1JV       0.069200
     52 H18         27.6810    60.8920    20.5760 h5         1 1JV       0.072100
     53 H19         24.2690    64.0100    20.1170 h1         1 1JV       0.112200
     54 H20         23.0330    63.1360    21.0630 h1         1 1JV       0.112200
     55 H21         16.8460    60.5950    23.9780 ha         1 1JV       0.122000
@<TRIPOS>BOND
     1     1     2 1   
     2     1    35 1   
     3     1    36 1   
     4     1    37 1   
     5     2     3 1   
     6     2     4 1   
     7     2     5 1   
     8     3    38 1   
     9     3    39 1   
    10     3    40 1   
    11     4    41 1   
    12     5     6 1   
    13     5    42 1   
    14     5    43 1   
    15     6     7 1   
    16     6    10 1   
    17     7     8 2   
    18     7    44 1   
    19     8     9 1   
    20     8    11 1   
    21     9    10 2   
    22     9    45 1   
    23    11    12 ar  
    24    11    34 ar  
    25    12    13 ar  
    26    12    46 1   
    27    13    14 ar  
    28    13    47 1   
    29    14    15 ar  
    30    14    20 1   
    31    15    16 1   
    32    15    34 ar  
    33    16    17 1   
    34    17    18 1   
    35    17    48 1   
    36    17    49 1   
    37    18    19 1   
    38    18    50 1   
    39    18    51 1   
    40    19    20 2   
    41    19    23 1   
    42    20    21 1   
    43    21    22 2   
    44    22    23 1   
    45    22    24 1   
    46    24    25 2   
    47    24    28 1   
    48    25    26 1   
    49    26    27 2   
    50    26    52 1   
    51    27    28 1   
    52    28    29 1   
    53    29    30 1   
    54    29    53 1   
    55    29    54 1   
    56    30    31 1   
    57    30    32 1   
    58    30    33 1   
    59    34    55 1   
@<TRIPOS>SUBSTRUCTURE
     1 1JV         1 TEMP              0 ****  ****    0 ROOT
