@<TRIPOS>MOLECULE
1JW
   23    22     1     0     0
SMALL
abcg2


@<TRIPOS>ATOM
      1 C01          1.2610    14.0800    14.9830 c3         1 1JW      -0.063400
      2 C02          0.9990    12.6450    15.4340 c3         1 1JW      -0.074400
      3 C03          1.8120    11.5840    14.7160 c3         1 1JW       0.163600
      4 O04          1.5590    11.6600    13.3290 oh         1 1JW      -0.657000
      5 C05          2.7140    14.5140    15.1390 c3         1 1JW      -0.071400
      6 C06          2.9330    16.0010    14.9160 c3         1 1JW       0.172300
      7 C07          4.3820    16.3790    15.1740 c3         1 1JW       0.119600
      8 O08          4.5210    17.7680    14.9600 oh         1 1JW      -0.672000
      9 O09          2.5570    16.3200    13.5930 oh         1 1JW      -0.659000
     10 H1           0.6270    14.7450    15.5780 hc         1 1JW       0.053700
     11 H2           0.9420    14.2060    13.9470 hc         1 1JW       0.053700
     12 H3          -0.0660    12.4210    15.3200 hc         1 1JW       0.042700
     13 H4           1.2160    12.5530    16.5030 hc         1 1JW       0.042700
     14 H5           1.5390    10.5990    15.1190 h1         1 1JW       0.012700
     15 H6           2.8780    11.7220    14.9350 h1         1 1JW       0.012700
     16 H7           2.1030    11.0020    12.8880 ho         1 1JW       0.438000
     17 H8           3.3580    13.9540    14.4530 hc         1 1JW       0.041700
     18 H9           3.0580    14.2730    16.1500 hc         1 1JW       0.041700
     19 H10          2.3060    16.5530    15.6360 h1         1 1JW       0.038700
     20 H11          4.6480    16.0990    16.2010 h1         1 1JW       0.028700
     21 H12          5.0290    15.8010    14.5010 h1         1 1JW       0.028700
     22 H13          5.4560    17.9750    14.8770 ho         1 1JW       0.449000
     23 H14          2.8040    17.2380    13.4340 ho         1 1JW       0.455000
@<TRIPOS>BOND
     1     1     2 1   
     2     1     5 1   
     3     1    10 1   
     4     1    11 1   
     5     2     3 1   
     6     2    12 1   
     7     2    13 1   
     8     3     4 1   
     9     3    14 1   
    10     3    15 1   
    11     4    16 1   
    12     5     6 1   
    13     5    17 1   
    14     5    18 1   
    15     6     7 1   
    16     6     9 1   
    17     6    19 1   
    18     7     8 1   
    19     7    20 1   
    20     7    21 1   
    21     8    22 1   
    22     9    23 1   
@<TRIPOS>SUBSTRUCTURE
     1 1JW         1 TEMP              0 ****  ****    0 ROOT
