@<TRIPOS>MOLECULE
1JW
   23    22     1     0     0
SMALL
No Charge or Current Charge


@<TRIPOS>ATOM
      1 C01          1.2640    14.0470    15.0340 c3         1 1JW      -0.063400
      2 C02          1.0240    12.5770    15.4650 c3         1 1JW      -0.074400
      3 C03          1.7680    11.5090    14.6310 c3         1 1JW       0.163600
      4 O04          1.3100    11.5220    13.2750 oh         1 1JW      -0.657000
      5 C05          2.7280    14.5290    15.2010 c3         1 1JW      -0.071400
      6 C06          2.9340    16.0350    14.9040 c3         1 1JW       0.172300
      7 C07          4.3850    16.5070    15.1930 c3         1 1JW       0.119600
      8 O08          4.5510    17.8790    14.7890 oh         1 1JW      -0.672000
      9 O09          2.6380    16.3140    13.5310 oh         1 1JW      -0.659000
     10 H1           0.6110    14.6930    15.6350 hc         1 1JW       0.053700
     11 H2           0.9500    14.1760    13.9910 hc         1 1JW       0.053700
     12 H3          -0.0530    12.3680    15.4230 hc         1 1JW       0.042700
     13 H4           1.3160    12.4640    16.5160 hc         1 1JW       0.042700
     14 H5           1.5830    10.5230    15.0770 h1         1 1JW       0.012700
     15 H6           2.8500    11.6910    14.6730 h1         1 1JW       0.012700
     16 H7           1.8080    10.8220    12.7990 ho         1 1JW       0.438000
     17 H8           3.3860    13.9430    14.5470 hc         1 1JW       0.041700
     18 H9           3.0480    14.3300    16.2320 hc         1 1JW       0.041700
     19 H10          2.2590    16.6100    15.5540 h1         1 1JW       0.038700
     20 H11          4.5890    16.3980    16.2660 h1         1 1JW       0.028700
     21 H12          5.0920    15.8620    14.6530 h1         1 1JW       0.028700
     22 H13          5.4600    18.1510    15.0510 ho         1 1JW       0.449000
     23 H14          3.1360    17.1440    13.3460 ho         1 1JW       0.455000
@<TRIPOS>BOND
     1     1     2 1   
     2     1     5 1   
     3     1    10 1   
     4     1    11 1   
     5     2     3 1   
     6     2    12 1   
     7     2    13 1   
     8     3     4 1   
     9     3    14 1   
    10     3    15 1   
    11     4    16 1   
    12     5     6 1   
    13     5    17 1   
    14     5    18 1   
    15     6     7 1   
    16     6     9 1   
    17     6    19 1   
    18     7     8 1   
    19     7    20 1   
    20     7    21 1   
    21     8    22 1   
    22     9    23 1   
@<TRIPOS>SUBSTRUCTURE
     1 1JW         1 TEMP              0 ****  ****    0 ROOT
