@<TRIPOS>MOLECULE
1JX
   21    22     1     0     0
SMALL
bcc


@<TRIPOS>ATOM
      1 O           -2.9240    -1.2310    -0.2680 o          1 1JX      -0.605500
      2 C           -1.8590    -0.6490    -0.2030 c          1 1JX       0.721500
      3 NAG         -0.6750    -1.3030    -0.0920 ns         1 1JX      -0.548400
      4 CAK          0.5650    -0.6800    -0.0220 ca         1 1JX       0.509200
      5 NAF          1.5990    -1.4070     0.3320 nb         1 1JX      -0.690000
      6 CAD          2.7990    -0.8270     0.3580 ca         1 1JX       0.399200
      7 CAC          2.9890     0.5020     0.0310 ca         1 1JX      -0.238300
      8 CAE          1.8880     1.2690    -0.3340 ca         1 1JX      -0.135000
      9 CAJ          0.6350     0.6780    -0.3750 ca         1 1JX       0.002300
     10 N           -0.5240     1.2930    -0.7860 nu         1 1JX      -0.721600
     11 CA          -1.7610     0.8660    -0.1590 c6         1 1JX       0.124500
     12 CB          -1.9220     1.3440     1.2860 c3         1 1JX      -0.125100
     13 H1          -0.6930    -2.3110    -0.0080 hn         1 1JX       0.341500
     14 H2           3.6330    -1.4550     0.6460 h4         1 1JX       0.025100
     15 H3           3.9780     0.9390     0.0650 ha         1 1JX       0.144000
     16 H4           2.0040     2.3130    -0.5980 ha         1 1JX       0.138000
     17 H5          -0.4570     2.2920    -0.9110 hn         1 1JX       0.410800
     18 H6          -2.5860     1.2540    -0.7570 h1         1 1JX       0.094700
     19 H7          -1.1290     0.9570     1.9270 hc         1 1JX       0.051700
     20 H8          -1.8850     2.4330     1.3210 hc         1 1JX       0.051700
     21 H9          -2.8810     1.0290     1.6980 hc         1 1JX       0.051700
@<TRIPOS>BOND
     1     1     2 2   
     2     2     3 1   
     3     2    11 1   
     4     3     4 1   
     5     3    13 1   
     6     4     5 ar  
     7     4     9 ar  
     8     5     6 ar  
     9     6     7 ar  
    10     6    14 1   
    11     7     8 ar  
    12     7    15 1   
    13     8     9 ar  
    14     8    16 1   
    15     9    10 1   
    16    10    11 1   
    17    10    17 1   
    18    11    12 1   
    19    11    18 1   
    20    12    19 1   
    21    12    20 1   
    22    12    21 1   
@<TRIPOS>SUBSTRUCTURE
     1 1JX         1 TEMP              0 ****  ****    0 ROOT
