@<TRIPOS>MOLECULE
1JX
   21    22     1     0     0
SMALL
No Charge or Current Charge


@<TRIPOS>ATOM
      1 O           -2.8350    -1.3460     0.0460 o          1 1JX      -0.530000
      2 C           -1.7910    -0.7050     0.0140 c          1 1JX       0.579000
      3 NAG         -0.5690    -1.3410     0.0800 ns         1 1JX      -0.314900
      4 CAK          0.6780    -0.7180    -0.0030 ca         1 1JX       0.443900
      5 NAF          1.7340    -1.5510     0.1230 nb         1 1JX      -0.690000
      6 CAD          2.9620    -0.9810     0.0490 ca         1 1JX       0.333900
      7 CAC          3.1570     0.4030    -0.1480 ca         1 1JX      -0.155000
      8 CAE          2.0430     1.2580    -0.2780 ca         1 1JX      -0.117000
      9 CAJ          0.7630     0.6870    -0.2050 ca         1 1JX       0.206000
     10 N           -0.4070     1.4650    -0.3270 nu         1 1JX      -0.915200
     11 CA          -1.7710     0.8770    -0.1110 c6         1 1JX       0.124500
     12 CB          -2.3880     1.5120     1.1620 c3         1 1JX      -0.125100
     13 H1          -0.5670    -2.3460     0.1710 hn         1 1JX       0.175000
     14 H2           3.8150    -1.6510     0.1500 h4         1 1JX       0.025100
     15 H3           4.1670     0.8020    -0.1990 ha         1 1JX       0.126000
     16 H4           2.1720     2.3260    -0.4310 ha         1 1JX       0.120000
     17 H5          -0.2990     2.4780    -0.4380 hn         1 1JX       0.466000
     18 H6          -2.4250     1.1150    -0.9640 h1         1 1JX       0.094700
     19 H7          -1.7950     1.2750     2.0530 hc         1 1JX       0.051700
     20 H8          -2.4430     2.6030     1.0740 hc         1 1JX       0.051700
     21 H9          -3.4080     1.1450     1.3320 hc         1 1JX       0.051700
@<TRIPOS>BOND
     1     1     2 2   
     2     2     3 1   
     3     2    11 1   
     4     3     4 1   
     5     3    13 1   
     6     4     5 ar  
     7     4     9 ar  
     8     5     6 ar  
     9     6     7 ar  
    10     6    14 1   
    11     7     8 ar  
    12     7    15 1   
    13     8     9 ar  
    14     8    16 1   
    15     9    10 1   
    16    10    11 1   
    17    10    17 1   
    18    11    12 1   
    19    11    18 1   
    20    12    19 1   
    21    12    20 1   
    22    12    21 1   
@<TRIPOS>SUBSTRUCTURE
     1 1JX         1 TEMP              0 ****  ****    0 ROOT
