@<TRIPOS>MOLECULE
1JY
   77    80     1     0     0
SMALL
abcg2


@<TRIPOS>ATOM
      1 OAF         16.4860    25.8330   -56.7880 o          1 1JY      -0.514100
      2 CBI         17.3610    26.6750   -56.6580 c          1 1JY       0.715100
      3 NBA         17.0420    27.9530   -56.2540 nc         1 1JY      -0.666100
      4 CBL         17.9710    28.8360   -56.0960 cd         1 1JY       0.663200
      5 CAT         17.6400    30.2360   -55.6480 c3         1 1JY       0.128300
      6 OAH         16.2600    30.4240   -55.6640 oh         1 1JY      -0.599000
      7 NBB         19.2810    28.6000   -56.2890 na         1 1JY      -0.913200
      8 CBM         19.7310    27.3710   -56.7100 ca         1 1JY       0.313000
      9 CBR         18.7750    26.3730   -56.9210 ca         1 1JY      -0.221600
     10 CAO         19.1850    25.1190   -57.3830 ca         1 1JY       0.022000
     11 CAN         21.0920    27.1360   -56.9290 ca         1 1JY      -0.171000
     12 CBK         21.4690    25.8920   -57.3820 ca         1 1JY      -0.028300
     13 CBN         20.5180    24.8950   -57.6210 ca         1 1JY      -0.140300
     14 CAV         22.8520    25.3860   -57.6830 c5         1 1JY      -0.036100
     15 CAM         22.6090    24.1150   -58.5120 c5         1 1JY      -0.095400
     16 CBO         21.1850    23.6430   -58.1340 c5         1 1JY       0.303800
     17 NBU         20.4620    22.9120   -59.1600 nh         1 1JY      -0.831400
     18 CAU         20.1740    21.5260   -58.8660 c3         1 1JY       0.317900
     19 CAL         18.9440    21.3360   -58.0910 c1         1 1JY      -0.180100
     20 CAA         17.9390    21.2080   -57.4440 c1         1 1JY      -0.230000
     21 CBQ         19.8170    23.5350   -60.2080 ca         1 1JY       0.300000
     22 CAS         18.8090    22.8820   -60.9380 ca         1 1JY      -0.191000
     23 CAQ         18.1670    23.5040   -61.9930 ca         1 1JY      -0.041000
     24 CAR         20.1410    24.8440   -60.6100 ca         1 1JY      -0.191000
     25 CAP         19.5000    25.4460   -61.6730 ca         1 1JY      -0.041000
     26 CBP         18.4880    24.8020   -62.3810 ca         1 1JY      -0.136600
     27 CBJ         17.8370    25.5120   -63.5170 c          1 1JY       0.591700
     28 OAG         18.4000    26.4480   -64.0810 o          1 1JY      -0.645100
     29 NBD         16.6200    25.0740   -63.8670 ns         1 1JY      -0.445900
     30 CBT         15.8100    25.6620   -64.9080 c3         1 1JY      -0.049300
     31 CBG         14.3250    25.2710   -64.6730 c          1 1JY       0.714000
     32 OAD         14.0810    24.5570   -63.6800 o          1 1JY      -0.729500
     33 OAK         13.5170    25.7160   -65.5040 o          1 1JY      -0.729500
     34 CAZ         16.2800    25.2610   -66.3090 c3         1 1JY      -0.058400
     35 CAX         16.1760    23.7590   -66.5820 c3         1 1JY      -0.153400
     36 CBH         16.8090    23.4120   -67.9150 c          1 1JY       0.586100
     37 OAE         17.9830    23.0620   -68.0020 o          1 1JY      -0.696100
     38 N           16.0040    23.5640   -68.9730 ns         1 1JY      -0.456900
     39 CA          16.3680    23.3190   -70.3510 c3         1 1JY      -0.036300
     40 C           15.0780    23.1500   -71.1930 c          1 1JY       0.718000
     41 O           15.2500    22.8010   -72.3750 o          1 1JY      -0.749500
     42 OXT         13.9930    23.3920   -70.6260 o          1 1JY      -0.749500
     43 CB          17.2570    24.4240   -70.9330 c3         1 1JY      -0.041400
     44 CG          16.6100    25.8000   -70.9560 c3         1 1JY      -0.195400
     45 CD          17.4960    26.9300   -71.5190 c          1 1JY       0.715000
     46 OE1         18.4000    26.6040   -72.3160 o          1 1JY      -0.777500
     47 OE2         17.2140    28.0900   -71.1520 o          1 1JY      -0.777500
     48 H1          18.1710    30.9350   -56.3090 h1         1 1JY       0.022700
     49 H2          18.0750    30.3690   -54.6470 h1         1 1JY       0.022700
     50 H3          16.0850    31.3220   -55.3670 ho         1 1JY       0.438000
     51 H4          19.9510    29.3450   -56.1510 hn         1 1JY       0.494000
     52 H5          18.4450    24.3480   -57.5650 ha         1 1JY       0.160000
     53 H6          21.8170    27.9220   -56.7560 ha         1 1JY       0.109000
     54 H7          23.3640    25.1500   -56.7460 hc         1 1JY       0.048200
     55 H8          23.4660    26.1230   -58.2020 hc         1 1JY       0.048200
     56 H9          23.3490    23.3400   -58.3130 hc         1 1JY       0.059200
     57 H10         22.6640    24.3390   -59.5780 hc         1 1JY       0.059200
     58 H11         21.2750    22.9540   -57.2890 h1         1 1JY       0.046700
     59 H12         20.1280    20.9430   -59.7880 h1         1 1JY       0.059200
     60 H13         21.0150    21.1100   -58.3080 h1         1 1JY       0.059200
     61 H14         17.0460    21.0960   -56.8730 ha         1 1JY       0.252000
     62 H15         18.4960    21.8780   -60.6870 ha         1 1JY       0.099000
     63 H16         17.4110    22.9360   -62.5220 ha         1 1JY       0.133000
     64 H17         20.9080    25.4110   -60.1070 ha         1 1JY       0.099000
     65 H18         19.7920    26.4500   -61.9500 ha         1 1JY       0.133000
     66 H19         16.1010    24.4530   -63.2620 hn         1 1JY       0.334500
     67 H20         15.8770    26.7550   -64.8420 h1         1 1JY       0.048700
     68 H22         17.3140    25.5860   -66.4430 hc         1 1JY       0.062700
     69 H23         15.6840    25.8110   -67.0390 hc         1 1JY       0.062700
     70 H24         15.1270    23.4510   -66.5680 hc         1 1JY       0.045700
     71 H25         16.6950    23.2000   -65.8020 hc         1 1JY       0.045700
     72 H26         15.0270    23.7840   -68.8380 hn         1 1JY       0.342500
     73 H27         16.9280    22.3790   -70.4030 h1         1 1JY       0.020700
     74 H29         17.5410    24.1290   -71.9440 hc         1 1JY       0.032700
     75 H30         18.1860    24.4620   -70.3590 hc         1 1JY       0.032700
     76 H31         15.7000    25.7710   -71.5710 hc         1 1JY       0.030200
     77 H32         16.2730    26.0780   -69.9530 hc         1 1JY       0.030200
@<TRIPOS>BOND
     1     1     2 2   
     2     2     3 1   
     3     2     9 1   
     4     3     4 2   
     5     4     5 1   
     6     4     7 1   
     7     5     6 1   
     8     5    48 1   
     9     5    49 1   
    10     6    50 1   
    11     7     8 1   
    12     7    51 1   
    13     8     9 ar  
    14     8    11 ar  
    15     9    10 ar  
    16    10    13 ar  
    17    10    52 1   
    18    11    12 ar  
    19    11    53 1   
    20    12    13 ar  
    21    12    14 1   
    22    13    16 1   
    23    14    15 1   
    24    14    54 1   
    25    14    55 1   
    26    15    16 1   
    27    15    56 1   
    28    15    57 1   
    29    16    17 1   
    30    16    58 1   
    31    17    18 1   
    32    17    21 1   
    33    18    19 1   
    34    18    59 1   
    35    18    60 1   
    36    19    20 3   
    37    20    61 1   
    38    21    22 ar  
    39    21    24 ar  
    40    22    23 ar  
    41    22    62 1   
    42    23    26 ar  
    43    23    63 1   
    44    24    25 ar  
    45    24    64 1   
    46    25    26 ar  
    47    25    65 1   
    48    26    27 1   
    49    27    28 2   
    50    27    29 1   
    51    29    30 1   
    52    29    66 1   
    53    30    31 1   
    54    30    34 1   
    55    30    67 1   
    56    31    32 1   
    57    31    33 1   
    58    34    35 1   
    59    34    68 1   
    60    34    69 1   
    61    35    36 1   
    62    35    70 1   
    63    35    71 1   
    64    36    37 2   
    65    36    38 1   
    66    38    39 1   
    67    38    72 1   
    68    39    40 1   
    69    39    43 1   
    70    39    73 1   
    71    40    41 1   
    72    40    42 1   
    73    43    44 1   
    74    43    74 1   
    75    43    75 1   
    76    44    45 1   
    77    44    76 1   
    78    44    77 1   
    79    45    46 1   
    80    45    47 1   
@<TRIPOS>SUBSTRUCTURE
     1 1JY         1 TEMP              0 ****  ****    0 ROOT
