@<TRIPOS>MOLECULE
1JY
   77    80     1     0     0
SMALL
No Charge or Current Charge


@<TRIPOS>ATOM
      1 OAF         16.2800    26.3160   -57.7280 o          1 1JY      -0.514100
      2 CBI         17.2120    27.0240   -57.3800 c          1 1JY       0.715100
      3 NBA         17.0170    28.3370   -57.0860 nc         1 1JY      -0.666100
      4 CBL         17.9640    29.1700   -56.6990 cd         1 1JY       0.663200
      5 CAT         17.5940    30.6280   -56.4010 c3         1 1JY       0.128300
      6 OAH         18.7040    31.4540   -55.9660 oh         1 1JY      -0.599000
      7 NBB         19.2790    28.7280   -56.5510 na         1 1JY      -0.913200
      8 CBM         19.5640    27.4060   -56.8480 ca         1 1JY       0.313000
      9 CBR         18.5810    26.5110   -57.2600 ca         1 1JY      -0.221600
     10 CAO         18.9040    25.1670   -57.5510 ca         1 1JY       0.022000
     11 CAN         20.8940    26.9680   -56.7140 ca         1 1JY      -0.171000
     12 CBK         21.2140    25.6350   -57.0120 ca         1 1JY      -0.028300
     13 CBN         20.2400    24.7550   -57.4340 ca         1 1JY      -0.140300
     14 CAV         22.5680    24.9860   -56.9050 c5         1 1JY      -0.036100
     15 CAM         22.3460    23.6810   -57.7620 c5         1 1JY      -0.095400
     16 CBO         20.7950    23.3770   -57.6980 c5         1 1JY       0.303800
     17 NBU         20.4290    22.7510   -59.0070 nh         1 1JY      -0.831400
     18 CAU         20.6860    21.3060   -59.2040 c3         1 1JY       0.317900
     19 CAL         19.8040    20.4550   -58.3890 c1         1 1JY      -0.180100
     20 CAA         19.0660    19.7790   -57.7060 c1         1 1JY      -0.230000
     21 CBQ         19.7760    23.4710   -60.0350 ca         1 1JY       0.300000
     22 CAS         18.5730    22.9920   -60.5800 ca         1 1JY      -0.191000
     23 CAQ         17.9030    23.7010   -61.5920 ca         1 1JY      -0.041000
     24 CAR         20.3060    24.6760   -60.5290 ca         1 1JY      -0.191000
     25 CAP         19.6440    25.3930   -61.5390 ca         1 1JY      -0.041000
     26 CBP         18.4310    24.9180   -62.0860 ca         1 1JY      -0.136600
     27 CBJ         17.7450    25.7190   -63.1750 c          1 1JY       0.591700
     28 OAG         18.2120    26.7670   -63.6040 o          1 1JY      -0.645100
     29 NBD         16.5570    25.2110   -63.6610 ns         1 1JY      -0.445900
     30 CBT         15.7410    25.8010   -64.7510 c3         1 1JY      -0.049300
     31 CBG         14.2790    25.2490   -64.7090 c          1 1JY       0.714000
     32 OAD         14.0750    24.1660   -64.1760 o          1 1JY      -0.729500
     33 OAK         13.3810    25.9750   -65.1120 o          1 1JY      -0.729500
     34 CAZ         16.3980    25.6180   -66.1470 c3         1 1JY      -0.058400
     35 CAX         16.6700    24.1450   -66.5500 c3         1 1JY      -0.153400
     36 CBH         17.3040    24.0570   -67.9450 c          1 1JY       0.586100
     37 OAE         18.4770    24.3400   -68.1530 o          1 1JY      -0.696100
     38 N           16.4640    23.5940   -68.9330 ns         1 1JY      -0.456900
     39 CA          16.8110    23.4380   -70.3670 c3         1 1JY      -0.036300
     40 C           15.8110    22.4680   -71.0840 c          1 1JY       0.718000
     41 O           16.2230    21.8140   -72.0320 o          1 1JY      -0.749500
     42 OXT         14.6970    22.3020   -70.5990 o          1 1JY      -0.749500
     43 CB          16.9310    24.8040   -71.1010 c3         1 1JY      -0.041400
     44 CG          15.6540    25.6860   -71.0660 c3         1 1JY      -0.195400
     45 CD          15.8830    26.9810   -71.8640 c          1 1JY       0.715000
     46 OE1         15.6340    26.9760   -73.0600 o          1 1JY      -0.777500
     47 OE2         16.3460    27.9480   -71.2800 o          1 1JY      -0.777500
     48 H1          16.8110    30.6290   -55.6310 h1         1 1JY       0.022700
     49 H2          17.1510    31.0570   -57.3090 h1         1 1JY       0.022700
     50 H3          18.3490    32.3570   -55.8090 ho         1 1JY       0.438000
     51 H4          19.9830    29.3900   -56.2440 hn         1 1JY       0.494000
     52 H5          18.1400    24.4600   -57.8730 ha         1 1JY       0.160000
     53 H6          21.6690    27.6520   -56.3810 ha         1 1JY       0.109000
     54 H7          22.8130    24.7470   -55.8640 hc         1 1JY       0.048200
     55 H8          23.3760    25.6100   -57.3030 hc         1 1JY       0.048200
     56 H9          22.9420    22.8390   -57.3950 hc         1 1JY       0.059200
     57 H10         22.6760    23.8630   -58.7910 hc         1 1JY       0.059200
     58 H11         20.5530    22.7230   -56.8480 h1         1 1JY       0.046700
     59 H12         20.5540    21.0350   -60.2610 h1         1 1JY       0.059200
     60 H13         21.7300    21.0750   -58.9500 h1         1 1JY       0.059200
     61 H14         18.4040    19.1930   -57.1000 ha         1 1JY       0.252000
     62 H15         18.1410    22.0670   -60.2090 ha         1 1JY       0.099000
     63 H16         16.9740    23.2890   -61.9770 ha         1 1JY       0.133000
     64 H17         21.2350    25.0670   -60.1290 ha         1 1JY       0.099000
     65 H18         20.0790    26.3240   -61.8950 ha         1 1JY       0.133000
     66 H19         16.2160    24.3550   -63.2420 hn         1 1JY       0.334500
     67 H20         15.6660    26.8790   -64.5560 h1         1 1JY       0.048700
     68 H22         17.3440    26.1720   -66.1700 hc         1 1JY       0.062700
     69 H23         15.7540    26.0840   -66.9030 hc         1 1JY       0.062700
     70 H24         15.7190    23.5990   -66.5380 hc         1 1JY       0.045700
     71 H25         17.3620    23.7030   -65.8240 hc         1 1JY       0.045700
     72 H26         15.5190    23.3560   -68.6540 hn         1 1JY       0.342500
     73 H27         17.7950    22.9530   -70.4090 h1         1 1JY       0.020700
     74 H29         17.2050    24.6140   -72.1460 hc         1 1JY       0.032700
     75 H30         17.7630    25.3700   -70.6650 hc         1 1JY       0.032700
     76 H31         14.8590    25.0920   -71.5330 hc         1 1JY       0.030200
     77 H32         15.4700    25.9200   -70.0100 hc         1 1JY       0.030200
@<TRIPOS>BOND
     1     1     2 2   
     2     2     3 1   
     3     2     9 1   
     4     3     4 2   
     5     4     5 1   
     6     4     7 1   
     7     5     6 1   
     8     5    48 1   
     9     5    49 1   
    10     6    50 1   
    11     7     8 1   
    12     7    51 1   
    13     8     9 ar  
    14     8    11 ar  
    15     9    10 ar  
    16    10    13 ar  
    17    10    52 1   
    18    11    12 ar  
    19    11    53 1   
    20    12    13 ar  
    21    12    14 1   
    22    13    16 1   
    23    14    15 1   
    24    14    54 1   
    25    14    55 1   
    26    15    16 1   
    27    15    56 1   
    28    15    57 1   
    29    16    17 1   
    30    16    58 1   
    31    17    18 1   
    32    17    21 1   
    33    18    19 1   
    34    18    59 1   
    35    18    60 1   
    36    19    20 3   
    37    20    61 1   
    38    21    22 ar  
    39    21    24 ar  
    40    22    23 ar  
    41    22    62 1   
    42    23    26 ar  
    43    23    63 1   
    44    24    25 ar  
    45    24    64 1   
    46    25    26 ar  
    47    25    65 1   
    48    26    27 1   
    49    27    28 2   
    50    27    29 1   
    51    29    30 1   
    52    29    66 1   
    53    30    31 1   
    54    30    34 1   
    55    30    67 1   
    56    31    32 1   
    57    31    33 1   
    58    34    35 1   
    59    34    68 1   
    60    34    69 1   
    61    35    36 1   
    62    35    70 1   
    63    35    71 1   
    64    36    37 2   
    65    36    38 1   
    66    38    39 1   
    67    38    72 1   
    68    39    40 1   
    69    39    43 1   
    70    39    73 1   
    71    40    41 1   
    72    40    42 1   
    73    43    44 1   
    74    43    74 1   
    75    43    75 1   
    76    44    45 1   
    77    44    76 1   
    78    44    77 1   
    79    45    46 1   
    80    45    47 1   
@<TRIPOS>SUBSTRUCTURE
     1 1JY         1 TEMP              0 ****  ****    0 ROOT
