@<TRIPOS>MOLECULE
1JZ
   23    23     1     0     0
SMALL
abcg2


@<TRIPOS>ATOM
      1 C10         -3.1020     0.3180    -0.1950 c2         1 1JZ       0.815100
      2 C12          1.2480     1.1590     0.2730 ca         1 1JZ      -0.057500
      3 C8           0.1840    -1.3720     0.0790 ca         1 1JZ      -0.164500
      4 C7           1.5500    -1.1990     0.1980 ca         1 1JZ      -0.057500
      5 O2           4.1190     0.2270    -0.9400 oh         1 1JZ      -0.655000
      6 C6           2.1120     0.0710     0.3020 ca         1 1JZ      -0.126300
      7 C9          -0.6810    -0.2700     0.0520 ca         1 1JZ       0.332000
      8 C11         -0.1280     1.0090     0.1520 ca         1 1JZ      -0.164500
      9 N3          -2.0370    -0.5420    -0.0520 nu         1 1JZ      -0.931200
     10 N4          -4.3020    -0.3580    -0.2480 nv         1 1JZ      -1.073200
     11 N5          -2.9450     1.5800    -0.3210 n2         1 1JZ      -0.878100
     12 H12          1.6510     2.1620     0.3520 ha         1 1JZ       0.111000
     13 H8          -0.2220    -2.3750     0.0060 ha         1 1JZ       0.130500
     14 H7           2.1890    -2.0740     0.2170 ha         1 1JZ       0.111000
     15 H5           4.0350    -0.5430     0.9900 h1         1 1JZ       0.020700
     16 H5A          3.8260     1.2030     0.8750 h1         1 1JZ       0.020700
     17 HO2          5.0760     0.3020    -0.8780 ho         1 1JZ       0.437000
     18 H11         -0.7700     1.8730     0.1270 ha         1 1JZ       0.130500
     19 HN3         -2.2600    -1.5230    -0.1180 hn         1 1JZ       0.491000
     20 HN4         -4.3790    -1.1980     0.3060 hn         1 1JZ       0.455500
     21 HN4A        -5.1210     0.2230    -0.1580 hn         1 1JZ       0.455500
     22 HN5         -3.8440     2.0430    -0.3850 hn         1 1JZ       0.382400
     23 C5           3.5970     0.2540     0.3760 c3         1 1JZ       0.215900
@<TRIPOS>BOND
     1     1     9 1   
     2     1    10 1   
     3     1    11 2   
     4     2     6 ar  
     5     2     8 ar  
     6     2    12 1   
     7     3     4 ar  
     8     3     7 ar  
     9     3    13 1   
    10     4     6 ar  
    11     4    14 1   
    12     5    17 1   
    13     5    23 1   
    14     6    23 1   
    15     7     8 ar  
    16     7     9 1   
    17     8    18 1   
    18     9    19 1   
    19    10    20 1   
    20    10    21 1   
    21    11    22 1   
    22    15    23 1   
    23    16    23 1   
@<TRIPOS>SUBSTRUCTURE
     1 1JZ         1 TEMP              0 ****  ****    0 ROOT
