@<TRIPOS>MOLECULE
1JZ
   23    23     1     0     0
SMALL
No Charge or Current Charge


@<TRIPOS>ATOM
      1 C10         -3.0600     0.3680    -0.1730 c2         1 1JZ       0.815100
      2 C12          1.2760     1.1250     0.6460 ca         1 1JZ      -0.057500
      3 C8           0.0710    -1.3130    -0.0510 ca         1 1JZ      -0.164500
      4 C7           1.4720    -1.1880    -0.0760 ca         1 1JZ      -0.057500
      5 O2           4.0350     0.5980    -1.0430 oh         1 1JZ      -0.655000
      6 C6           2.0820     0.0330     0.2710 ca         1 1JZ      -0.126300
      7 C9          -0.7320    -0.2210     0.3140 ca         1 1JZ       0.332000
      8 C11         -0.1240     0.9950     0.6700 ca         1 1JZ      -0.164500
      9 N3          -2.1140    -0.3690     0.3560 nu         1 1JZ      -0.931200
     10 N4          -4.1170    -0.3900    -0.0610 nv         1 1JZ      -1.073200
     11 N5          -2.8530     1.2530    -1.0230 n2         1 1JZ      -0.878100
     12 H12          1.7340     2.0740     0.9190 ha         1 1JZ       0.111000
     13 H8          -0.3870    -2.2600    -0.3190 ha         1 1JZ       0.130500
     14 H7           2.0830    -2.0400    -0.3660 ha         1 1JZ       0.111000
     15 H5           4.0530    -0.7980     0.5030 h1         1 1JZ       0.020700
     16 H5A          3.9100     0.8900     1.0160 h1         1 1JZ       0.020700
     17 HO2          5.0140     0.6680    -0.9990 ho         1 1JZ       0.437000
     18 H11         -0.7390     1.8410     0.9650 ha         1 1JZ       0.130500
     19 HN3         -2.4240    -1.3270     0.3150 hn         1 1JZ       0.491000
     20 HN4         -4.3080    -0.5940     0.9110 hn         1 1JZ       0.455500
     21 HN4A        -4.9230    -0.0250    -0.5500 hn         1 1JZ       0.455500
     22 HN5         -3.7500     1.4820    -1.4620 hn         1 1JZ       0.382400
     23 C5           3.5980     0.1680     0.2490 c3         1 1JZ       0.215900
@<TRIPOS>BOND
     1     1     9 1   
     2     1    10 1   
     3     1    11 2   
     4     2     6 ar  
     5     2     8 ar  
     6     2    12 1   
     7     3     4 ar  
     8     3     7 ar  
     9     3    13 1   
    10     4     6 ar  
    11     4    14 1   
    12     5    17 1   
    13     5    23 1   
    14     6    23 1   
    15     7     8 ar  
    16     7     9 1   
    17     8    18 1   
    18     9    19 1   
    19    10    20 1   
    20    10    21 1   
    21    11    22 1   
    22    15    23 1   
    23    16    23 1   
@<TRIPOS>SUBSTRUCTURE
     1 1JZ         1 TEMP              0 ****  ****    0 ROOT
