@<TRIPOS>MOLECULE
1K0
   49    51     1     0     0
SMALL
abcg2


@<TRIPOS>ATOM
      1 O1           5.0210     2.8470    -0.6250 os         1 1K0      -0.336100
      2 C1           6.4360     2.8860    -0.6810 c3         1 1K0       0.149900
      3 C2           4.4020     1.6880    -0.3740 ca         1 1K0       0.220100
      4 C3           5.0890     0.4880    -0.1540 ca         1 1K0      -0.332000
      5 C4           4.3840    -0.6790     0.1040 ca         1 1K0       0.254100
      6 N1           0.8110    -1.5960     0.4310 ns         1 1K0      -0.435400
      7 C5           6.4050    -1.9080     0.3080 c3         1 1K0       0.147900
      8 O2           4.9900    -1.8460     0.3190 os         1 1K0      -0.308100
      9 C6           2.9700    -0.6640     0.1480 ca         1 1K0      -0.280600
     10 O3          -5.3520    -0.0100     0.2950 os         1 1K0      -0.360100
     11 N2           0.9320     0.6640    -0.0710 nc         1 1K0      -0.647100
     12 C7           2.1750    -1.8440     0.4370 c          1 1K0       0.594600
     13 C8           0.2390    -0.3910     0.1760 cd         1 1K0       0.577500
     14 O4          -7.8370     1.3450     0.2230 oh         1 1K0      -0.648000
     15 O5           2.5690    -2.9690     0.6840 o          1 1K0      -0.526000
     16 C9          -1.2320    -0.3120     0.1940 ca         1 1K0      -0.155900
     17 C18         -1.8410     0.9020     0.4990 ca         1 1K0      -0.070500
     18 C16         -3.2220     1.0270     0.5330 ca         1 1K0      -0.092800
     19 C17         -3.8650     2.3310     0.9020 c3         1 1K0      -0.043800
     20 C13         -3.9960    -0.0990     0.2400 ca         1 1K0       0.120100
     21 C14         -5.9830     0.3880    -0.9200 c3         1 1K0       0.164600
     22 C15         -7.4750     0.3700    -0.7260 c3         1 1K0       0.162600
     23 C11         -3.4150    -1.3310    -0.0670 ca         1 1K0      -0.092800
     24 C12         -4.2670    -2.5310    -0.3590 c3         1 1K0      -0.043800
     25 C10         -2.0290    -1.4210    -0.0810 ca         1 1K0      -0.070500
     26 C19          2.3020     0.5610    -0.0820 ca         1 1K0       0.262400
     27 C20          3.0170     1.7250    -0.3410 ca         1 1K0      -0.194000
     28 H1           6.8900     2.5970     0.2700 h1         1 1K0       0.043033
     29 H2           6.8300     2.2470    -1.4740 h1         1 1K0       0.043033
     30 H3           6.7030     3.9170    -0.8970 h1         1 1K0       0.043033
     31 H4           6.1670     0.4690    -0.1870 ha         1 1K0       0.123000
     32 H5           0.2260    -2.3820     0.6800 hn         1 1K0       0.330500
     33 H6           6.6630    -2.9410     0.5250 h1         1 1K0       0.044367
     34 H7           6.8180    -1.6380    -0.6660 h1         1 1K0       0.044367
     35 H8           6.8460    -1.2660     1.0740 h1         1 1K0       0.044367
     36 H9          -8.7800     1.2620     0.3890 ho         1 1K0       0.443000
     37 H10         -1.2240     1.7620     0.7270 ha         1 1K0       0.127000
     38 H11         -4.3110     2.8220     0.0360 hc         1 1K0       0.048033
     39 H12         -4.6600     2.1930     1.6350 hc         1 1K0       0.048033
     40 H13         -3.1300     3.0160     1.3220 hc         1 1K0       0.048033
     41 H14         -5.6490     1.3870    -1.2190 h1         1 1K0       0.039200
     42 H15         -5.7300    -0.3030    -1.7320 h1         1 1K0       0.039200
     43 H16         -7.7870    -0.6360    -0.4210 h1         1 1K0       0.027200
     44 H17         -7.9290     0.5610    -1.7060 h1         1 1K0       0.027200
     45 H18         -4.8030    -2.4280    -1.3050 hc         1 1K0       0.048033
     46 H19         -3.6560    -3.4300    -0.4290 hc         1 1K0       0.048033
     47 H20         -5.0140    -2.6910     0.4170 hc         1 1K0       0.048033
     48 H21         -1.5850    -2.3740    -0.3430 ha         1 1K0       0.127000
     49 H22          2.4830     2.6490    -0.5170 ha         1 1K0       0.148000
@<TRIPOS>BOND
     1     1     2 1   
     2     1     3 1   
     3     2    28 1   
     4     2    29 1   
     5     2    30 1   
     6     3     4 ar  
     7     3    27 ar  
     8     4     5 ar  
     9     4    31 1   
    10     5     8 1   
    11     5     9 ar  
    12     6    12 1   
    13     6    13 1   
    14     6    32 1   
    15     7     8 1   
    16     7    33 1   
    17     7    34 1   
    18     7    35 1   
    19     9    12 1   
    20     9    26 ar  
    21    10    20 1   
    22    10    21 1   
    23    11    13 2   
    24    11    26 1   
    25    12    15 2   
    26    13    16 1   
    27    14    22 1   
    28    14    36 1   
    29    16    17 ar  
    30    16    25 ar  
    31    17    18 ar  
    32    17    37 1   
    33    18    19 1   
    34    18    20 ar  
    35    19    38 1   
    36    19    39 1   
    37    19    40 1   
    38    20    23 ar  
    39    21    22 1   
    40    21    41 1   
    41    21    42 1   
    42    22    43 1   
    43    22    44 1   
    44    23    24 1   
    45    23    25 ar  
    46    24    45 1   
    47    24    46 1   
    48    24    47 1   
    49    25    48 1   
    50    26    27 ar  
    51    27    49 1   
@<TRIPOS>SUBSTRUCTURE
     1 1K0         1 TEMP              0 ****  ****    0 ROOT
