@<TRIPOS>MOLECULE
1K0
   49    51     1     0     0
SMALL
No Charge or Current Charge


@<TRIPOS>ATOM
      1 O1           5.1280     2.8730    -0.6930 os         1 1K0      -0.336100
      2 C1           6.5620     2.9540    -0.7680 c3         1 1K0       0.149900
      3 C2           4.4680     1.6970    -0.4020 ca         1 1K0       0.220100
      4 C3           5.1410     0.4910    -0.1570 ca         1 1K0      -0.332000
      5 C4           4.4110    -0.6780     0.1360 ca         1 1K0       0.254100
      6 N1           0.8380    -1.5800     0.4780 ns         1 1K0      -0.435400
      7 C5           6.4910    -2.0100     0.3550 c3         1 1K0       0.147900
      8 O2           5.0590    -1.8740     0.3800 os         1 1K0      -0.308100
      9 C6           2.9970    -0.6300     0.1800 ca         1 1K0      -0.280600
     10 O3          -5.4220    -0.0650     0.2330 os         1 1K0      -0.360100
     11 N2           0.9330     0.7440    -0.0530 nc         1 1K0      -0.647100
     12 C7           2.1630    -1.8220     0.4890 c          1 1K0       0.594600
     13 C8           0.2610    -0.3760     0.2140 cd         1 1K0       0.577500
     14 O4          -8.0030     1.3790     0.2740 oh         1 1K0      -0.648000
     15 O5           2.5820    -2.9390     0.7410 o          1 1K0      -0.526000
     16 C9          -1.2200    -0.3040     0.2550 ca         1 1K0      -0.155900
     17 C18         -1.8760     0.9110     0.5600 ca         1 1K0      -0.070500
     18 C16         -3.2810     1.0000     0.5680 ca         1 1K0      -0.092800
     19 C17         -3.9450     2.3250     0.9320 c3         1 1K0      -0.043800
     20 C13         -4.0480    -0.1390     0.2410 ca         1 1K0       0.120100
     21 C14         -6.0890     0.4080    -0.9530 c3         1 1K0       0.164600
     22 C15         -7.6200     0.4000    -0.7100 c3         1 1K0       0.162600
     23 C11         -3.4150    -1.3570    -0.0800 ca         1 1K0      -0.092800
     24 C12         -4.2360    -2.5920    -0.4390 c3         1 1K0      -0.043800
     25 C10         -2.0090    -1.4290    -0.0820 ca         1 1K0      -0.070500
     26 C19          2.3250     0.5820    -0.0680 ca         1 1K0       0.262400
     27 C20          3.0740     1.7290    -0.3550 ca         1 1K0      -0.194000
     28 H1           7.0190     2.6800     0.1910 h1         1 1K0       0.043033
     29 H2           6.9510     2.2880    -1.5480 h1         1 1K0       0.043033
     30 H3           6.8720     3.9780    -1.0110 h1         1 1K0       0.043033
     31 H4           6.2230     0.4640    -0.1940 ha         1 1K0       0.123000
     32 H5           0.2530    -2.3670     0.7080 hn         1 1K0       0.330500
     33 H6           6.7770    -3.0450     0.5770 h1         1 1K0       0.044367
     34 H7           6.8900    -1.7530    -0.6350 h1         1 1K0       0.044367
     35 H8           6.9580    -1.3610     1.1060 h1         1 1K0       0.044367
     36 H9          -8.9720     1.2830     0.4100 ho         1 1K0       0.443000
     37 H10         -1.2920     1.7960     0.8080 ha         1 1K0       0.127000
     38 H11         -4.2440     2.8740     0.0310 hc         1 1K0       0.048033
     39 H12         -4.8410     2.1710     1.5450 hc         1 1K0       0.048033
     40 H13         -3.2700     2.9710     1.5040 hc         1 1K0       0.048033
     41 H14         -5.7630     1.4240    -1.2100 h1         1 1K0       0.039200
     42 H15         -5.8600    -0.2460    -1.8040 h1         1 1K0       0.039200
     43 H16         -7.9250    -0.6050    -0.3910 h1         1 1K0       0.027200
     44 H17         -8.1240     0.6110    -1.6620 h1         1 1K0       0.027200
     45 H18         -4.7030    -2.4800    -1.4250 hc         1 1K0       0.048033
     46 H19         -3.6200    -3.4990    -0.4660 hc         1 1K0       0.048033
     47 H20         -5.0340    -2.7640     0.2930 hc         1 1K0       0.048033
     48 H21         -1.5350    -2.3680    -0.3630 ha         1 1K0       0.127000
     49 H22          2.5620     2.6670    -0.5470 ha         1 1K0       0.148000
@<TRIPOS>BOND
     1     1     2 1   
     2     1     3 1   
     3     2    28 1   
     4     2    29 1   
     5     2    30 1   
     6     3     4 ar  
     7     3    27 ar  
     8     4     5 ar  
     9     4    31 1   
    10     5     8 1   
    11     5     9 ar  
    12     6    12 1   
    13     6    13 1   
    14     6    32 1   
    15     7     8 1   
    16     7    33 1   
    17     7    34 1   
    18     7    35 1   
    19     9    12 1   
    20     9    26 ar  
    21    10    20 1   
    22    10    21 1   
    23    11    13 2   
    24    11    26 1   
    25    12    15 2   
    26    13    16 1   
    27    14    22 1   
    28    14    36 1   
    29    16    17 ar  
    30    16    25 ar  
    31    17    18 ar  
    32    17    37 1   
    33    18    19 1   
    34    18    20 ar  
    35    19    38 1   
    36    19    39 1   
    37    19    40 1   
    38    20    23 ar  
    39    21    22 1   
    40    21    41 1   
    41    21    42 1   
    42    22    43 1   
    43    22    44 1   
    44    23    24 1   
    45    23    25 ar  
    46    24    45 1   
    47    24    46 1   
    48    24    47 1   
    49    25    48 1   
    50    26    27 ar  
    51    27    49 1   
@<TRIPOS>SUBSTRUCTURE
     1 1K0         1 TEMP              0 ****  ****    0 ROOT
