@<TRIPOS>MOLECULE
1K2
   50    54     1     0     0
SMALL
No Charge or Current Charge


@<TRIPOS>ATOM
      1 C10        -25.5070     5.0840    -4.7850 ca         1 1K2      -0.098000
      2 C11        -24.4380     1.8540    -1.8160 c          1 1K2       0.612700
      3 O12        -23.6620     2.6840    -2.2690 o          1 1K2      -0.583100
      4 C13        -23.9620     0.5330    -1.2470 ca         1 1K2      -0.145600
      5 C15        -24.3710    -1.6490    -0.2120 ca         1 1K2       0.104000
      6 C16        -22.9950    -1.9190    -0.2060 ca         1 1K2      -0.057000
      7 C17        -22.0900    -0.9710    -0.7150 ca         1 1K2      -0.091300
      8 C18        -20.5960    -1.2620    -0.7130 c3         1 1K2       0.209900
      9 C20        -18.9770    -2.3540    -2.2240 ca         1 1K2       0.056100
     10 C21        -17.8910    -2.1190    -1.3470 ca         1 1K2      -0.122000
     11 C22        -16.6460    -2.5870    -1.7810 ca         1 1K2      -0.099800
     12 C23        -16.4790    -3.2370    -2.9850 ca         1 1K2       0.332500
     13 C25        -14.4000    -3.1250    -1.9660 cc         1 1K2      -0.147100
     14 C26        -15.3500    -2.5230    -1.1590 cd         1 1K2      -0.245200
     15 C28        -18.7240    -3.0320    -3.4490 ca         1 1K2       0.340900
     16 C2         -26.4250     3.2780    -2.3030 cx         1 1K2       0.049700
     17 C3         -26.9090     3.2700    -3.7350 cx         1 1K2      -0.065400
     18 C4         -27.9030     3.2260    -2.5980 cx         1 1K2      -0.130400
     19 C5         -26.7660     4.4790    -4.6120 ca         1 1K2      -0.052300
     20 C6         -27.8880     5.0110    -5.2770 ca         1 1K2      -0.098000
     21 C7         -27.7520     6.1420    -6.1010 ca         1 1K2      -0.111500
     22 C8         -26.4940     6.7450    -6.2670 ca         1 1K2      -0.109000
     23 C9         -25.3710     6.2150    -5.6090 ca         1 1K2      -0.111500
     24 C14        -24.8570    -0.4360    -0.7260 ca         1 1K2      -0.075000
     25 O19        -20.2690    -1.9510    -1.9320 os         1 1K2      -0.339100
     26 N24        -15.1370    -3.5570    -3.0930 na         1 1K2      -0.322400
     27 N27        -17.4930    -3.4740    -3.8370 nb         1 1K2      -0.650000
     28 C29        -22.5770     0.2450    -1.2340 ca         1 1K2      -0.043000
     29 Cl30       -25.4980    -2.8400     0.4270 cl         1 1K2      -0.194000
     30 H40        -24.6330     4.6770    -4.2810 ha         1 1K2       0.114000
     31 H42        -22.6350    -2.8640     0.1930 ha         1 1K2       0.140000
     32 H44        -20.0380    -0.3190    -0.6390 h1         1 1K2       0.045200
     33 H43        -20.3440    -1.8780     0.1600 h1         1 1K2       0.045200
     34 H45        -17.9940    -1.6100    -0.3930 ha         1 1K2       0.124000
     35 H47        -13.3290    -3.2730    -1.8440 h4         1 1K2       0.215000
     36 H48        -15.1400    -2.0690    -0.1920 ha         1 1K2       0.207000
     37 H49        -19.5410    -3.2270    -4.1430 h4         1 1K2       0.034100
     38 H31        -26.3760     1.3570    -1.4000 hn         1 1K2       0.322500
     39 H32        -26.0150     4.2070    -1.9030 h1         1 1K2       0.095700
     40 H33        -26.7670     2.3460    -4.2910 hc         1 1K2       0.091700
     41 H34        -28.4310     2.2910    -2.4260 hc         1 1K2       0.077200
     42 H35        -28.4860     4.1210    -2.3960 hc         1 1K2       0.077200
     43 H36        -28.8640     4.5480    -5.1550 ha         1 1K2       0.114000
     44 H37        -28.6220     6.5500    -6.6120 ha         1 1K2       0.112000
     45 H38        -26.3890     7.6200    -6.9050 ha         1 1K2       0.111000
     46 H39        -24.3950     6.6790    -5.7380 ha         1 1K2       0.112000
     47 H41        -25.9300    -0.2680    -0.7130 ha         1 1K2       0.129000
     48 H46        -14.7500    -4.0430    -3.8940 hn         1 1K2       0.361000
     49 H50        -21.8680     0.9700    -1.6320 ha         1 1K2       0.141000
     50 N1         -25.7990     2.0840    -1.7990 ns         1 1K2      -0.481900
@<TRIPOS>BOND
     1     1    19 ar  
     2     1    23 ar  
     3     1    30 1   
     4     2     3 2   
     5     2     4 1   
     6     2    50 1   
     7     4    24 ar  
     8     4    28 ar  
     9     5     6 ar  
    10     5    24 ar  
    11     5    29 1   
    12     6     7 ar  
    13     6    31 1   
    14     7     8 1   
    15     7    28 ar  
    16     8    25 1   
    17     8    32 1   
    18     8    33 1   
    19     9    10 ar  
    20     9    15 ar  
    21     9    25 1   
    22    10    11 ar  
    23    10    34 1   
    24    11    12 ar  
    25    11    14 1   
    26    12    26 1   
    27    12    27 ar  
    28    13    14 2   
    29    13    26 1   
    30    13    35 1   
    31    14    36 1   
    32    15    27 ar  
    33    15    37 1   
    34    16    17 1   
    35    16    18 1   
    36    16    39 1   
    37    16    50 1   
    38    17    18 1   
    39    17    19 1   
    40    17    40 1   
    41    18    41 1   
    42    18    42 1   
    43    19    20 ar  
    44    20    21 ar  
    45    20    43 1   
    46    21    22 ar  
    47    21    44 1   
    48    22    23 ar  
    49    22    45 1   
    50    23    46 1   
    51    24    47 1   
    52    26    48 1   
    53    28    49 1   
    54    38    50 1   
@<TRIPOS>SUBSTRUCTURE
     1 1K2         1 TEMP              0 ****  ****    0 ROOT
