@<TRIPOS>MOLECULE
1K2
   50    54     1     0     0
SMALL
abcg2


@<TRIPOS>ATOM
      1 C10        -25.9380     4.5610    -5.4340 ca         1 1K2      -0.098000
      2 C11        -24.5880     1.7070    -2.2530 c          1 1K2       0.612700
      3 O12        -23.9370     2.4320    -2.9880 o          1 1K2      -0.583100
      4 C13        -24.0360     0.3970    -1.7820 ca         1 1K2      -0.145600
      5 C15        -24.2700    -1.8840    -1.1010 ca         1 1K2       0.104000
      6 C16        -22.8980    -2.0180    -0.9920 ca         1 1K2      -0.057000
      7 C17        -22.0800    -0.9310    -1.2910 ca         1 1K2      -0.091300
      8 C18        -20.5900    -1.0670    -1.1790 c3         1 1K2       0.209900
      9 C20        -18.8850    -2.4630    -2.0590 ca         1 1K2       0.056100
     10 C21        -17.8760    -1.8150    -1.3690 ca         1 1K2      -0.122000
     11 C22        -16.5830    -2.3310    -1.4970 ca         1 1K2      -0.099800
     12 C23        -16.4120    -3.4660    -2.3150 ca         1 1K2       0.332500
     13 C25        -14.4230    -2.9120    -1.5000 cc         1 1K2      -0.147100
     14 C26        -15.2960    -1.9930    -0.9870 cd         1 1K2      -0.245200
     15 C28        -18.5810    -3.5930    -2.8460 ca         1 1K2       0.340900
     16 C2         -26.4670     3.2280    -2.2200 cx         1 1K2       0.049700
     17 C3         -27.0510     3.3140    -3.6060 cx         1 1K2      -0.065400
     18 C4         -27.9450     3.2060    -2.4080 cx         1 1K2      -0.130400
     19 C5         -26.8840     4.5530    -4.4080 ca         1 1K2      -0.052300
     20 C6         -27.6180     5.7130    -4.1770 ca         1 1K2      -0.098000
     21 C7         -27.4060     6.8530    -4.9430 ca         1 1K2      -0.111500
     22 C8         -26.4610     6.8490    -5.9590 ca         1 1K2      -0.109000
     23 C9         -25.7280     5.6940    -6.2040 ca         1 1K2      -0.111500
     24 C14        -24.8530    -0.6880    -1.4910 ca         1 1K2      -0.075000
     25 O19        -20.1880    -2.0980    -2.0590 os         1 1K2      -0.339100
     26 N24        -15.0890    -3.7970    -2.2970 na         1 1K2      -0.322400
     27 N27        -17.3690    -4.0940    -2.9790 nb         1 1K2      -0.650000
     28 C29        -22.6530     0.2630    -1.6960 ca         1 1K2      -0.043000
     29 CL30       -25.2850    -3.2420    -0.7540 cl         1 1K2      -0.194000
     30 H40        -25.3600     3.6650    -5.6300 ha         1 1K2       0.114000
     31 H42        -22.4680    -2.9610    -0.6770 ha         1 1K2       0.140000
     32 H44        -20.1070    -0.1180    -1.4350 h1         1 1K2       0.045200
     33 H43        -20.3080    -1.3130    -0.1480 h1         1 1K2       0.045200
     34 H45        -18.0590    -0.9430    -0.7540 ha         1 1K2       0.124000
     35 H47        -13.3580    -3.0010    -1.3550 h4         1 1K2       0.215000
     36 H48        -15.0440    -1.1780    -0.3270 ha         1 1K2       0.207000
     37 H49        -19.3850    -4.0900    -3.3790 h4         1 1K2       0.034100
     38 H31        -26.2490     1.4820    -1.0830 hn         1 1K2       0.322500
     39 H32        -26.0360     4.1440    -1.8270 h1         1 1K2       0.095700
     40 H33        -26.9530     2.4000    -4.1830 hc         1 1K2       0.091700
     41 H34        -28.4590     2.2640    -2.2660 hc         1 1K2       0.077200
     42 H35        -28.5050     4.0690    -2.0720 hc         1 1K2       0.077200
     43 H36        -28.3730     5.7370    -3.4010 ha         1 1K2       0.114000
     44 H37        -27.9880     7.7450    -4.7470 ha         1 1K2       0.112000
     45 H38        -26.3000     7.7360    -6.5590 ha         1 1K2       0.111000
     46 H39        -24.9910     5.6770    -6.9960 ha         1 1K2       0.112000
     47 H41        -25.9290    -0.6270    -1.5900 ha         1 1K2       0.129000
     48 H46        -14.6720    -4.5690    -2.7920 hn         1 1K2       0.361000
     49 H50        -22.0180     1.1040    -1.9460 ha         1 1K2       0.141000
     50 N1         -25.8220     2.0240    -1.8190 ns         1 1K2      -0.481900
@<TRIPOS>BOND
     1     1    19 ar  
     2     1    23 ar  
     3     1    30 1   
     4     2     3 2   
     5     2     4 1   
     6     2    50 1   
     7     4    24 ar  
     8     4    28 ar  
     9     5     6 ar  
    10     5    24 ar  
    11     5    29 1   
    12     6     7 ar  
    13     6    31 1   
    14     7     8 1   
    15     7    28 ar  
    16     8    25 1   
    17     8    32 1   
    18     8    33 1   
    19     9    10 ar  
    20     9    15 ar  
    21     9    25 1   
    22    10    11 ar  
    23    10    34 1   
    24    11    12 ar  
    25    11    14 1   
    26    12    26 1   
    27    12    27 ar  
    28    13    14 2   
    29    13    26 1   
    30    13    35 1   
    31    14    36 1   
    32    15    27 ar  
    33    15    37 1   
    34    16    17 1   
    35    16    18 1   
    36    16    39 1   
    37    16    50 1   
    38    17    18 1   
    39    17    19 1   
    40    17    40 1   
    41    18    41 1   
    42    18    42 1   
    43    19    20 ar  
    44    20    21 ar  
    45    20    43 1   
    46    21    22 ar  
    47    21    44 1   
    48    22    23 ar  
    49    22    45 1   
    50    23    46 1   
    51    24    47 1   
    52    26    48 1   
    53    28    49 1   
    54    38    50 1   
@<TRIPOS>SUBSTRUCTURE
     1 1K2         1 TEMP              0 ****  ****    0 ROOT
