@<TRIPOS>MOLECULE
1K3
   57    61     1     0     0
SMALL
bcc


@<TRIPOS>ATOM
      1 C24         -8.8670    -2.6070    -0.6270 c3         1 1K3       0.124700
      2 O1          -7.7130    -2.5990     0.1920 os         1 1K3      -0.314900
      3 C10         -6.8540    -1.5750     0.0880 ca         1 1K3       0.161100
      4 C9          -5.7310    -1.6240     0.9210 ca         1 1K3      -0.200500
      5 C8          -4.7880    -0.6190     0.8850 ca         1 1K3      -0.051500
      6 C11         -7.0120    -0.4960    -0.7770 ca         1 1K3      -0.200500
      7 C12         -6.0610     0.5150    -0.7960 ca         1 1K3      -0.051500
      8 C7          -4.9400     0.4760     0.0260 ca         1 1K3      -0.096000
      9 C3          -4.0000     1.6030     0.0180 cc         1 1K3       0.081700
     10 C2          -4.4030     2.9170     0.0200 cd         1 1K3      -0.192000
     11 N1          -2.6580     1.3770     0.0160 na         1 1K3       0.207000
     12 N2          -2.0560     0.1770    -0.0240 nc         1 1K3      -0.674100
     13 C6          -0.7680     0.5070    -0.0290 cd         1 1K3       0.773200
     14 N3          -0.5040     1.8200     0.0030 nd         1 1K3      -0.447300
     15 C4          -1.7120     2.3710     0.0260 cc         1 1K3       0.021700
     16 C5          -2.1230     3.7090     0.0330 cc         1 1K3      -0.131000
     17 C1          -3.4690     3.9670     0.0210 cd         1 1K3      -0.087000
     18 N4           0.1680    -0.4750    -0.0790 nu         1 1K3      -0.696600
     19 C13          1.5570    -0.3720    -0.0670 ca         1 1K3       0.154600
     20 C18          2.2910    -1.5160    -0.4000 ca         1 1K3      -0.146500
     21 C17          3.6700    -1.5110    -0.3970 ca         1 1K3      -0.143500
     22 C16          4.3980    -0.3630    -0.0510 ca         1 1K3       0.114600
     23 C15          3.6570     0.7700     0.2860 ca         1 1K3      -0.143500
     24 C14          2.2660     0.7750     0.2730 ca         1 1K3      -0.146500
     25 N5           5.7980    -0.3810    -0.0880 nh         1 1K3      -0.640000
     26 C22          6.4500    -1.4630     0.6380 c6         1 1K3       0.192800
     27 C21          7.9130    -1.5570     0.2570 c6         1 1K3       0.159300
     28 N6           8.5900    -0.3000     0.4940 n3         1 1K3      -0.716600
     29 C23         10.0020    -0.3870     0.2020 c3         1 1K3       0.153100
     30 C20          7.9480     0.7550    -0.2610 c6         1 1K3       0.159300
     31 C19          6.4830     0.8790     0.1150 c6         1 1K3       0.192800
     32 H1          -9.4210    -3.5060    -0.3700 h1         1 1K3       0.043033
     33 H2          -9.5020    -1.7360    -0.4450 h1         1 1K3       0.043033
     34 H3          -8.6110    -2.6430    -1.6890 h1         1 1K3       0.043033
     35 H4          -5.6070    -2.4580     1.6000 ha         1 1K3       0.143500
     36 H5          -3.9330    -0.6810     1.5440 ha         1 1K3       0.141500
     37 H6          -7.8590    -0.4240    -1.4460 ha         1 1K3       0.143500
     38 H7          -6.1990     1.3420    -1.4820 ha         1 1K3       0.141500
     39 H8          -5.4610     3.1320     0.0450 ha         1 1K3       0.153000
     40 H9          -1.3810     4.4940     0.0400 ha         1 1K3       0.165000
     41 H10         -3.8230     4.9890     0.0260 ha         1 1K3       0.143000
     42 H11         -0.2050    -1.4040    -0.1960 hn         1 1K3       0.452800
     43 H12          1.7710    -2.4240    -0.6830 ha         1 1K3       0.145000
     44 H13          4.1860    -2.4140    -0.6940 ha         1 1K3       0.131000
     45 H14          4.1530     1.6840     0.5820 ha         1 1K3       0.131000
     46 H15          1.7470     1.6820     0.5410 ha         1 1K3       0.145000
     47 H16          6.3640    -1.3120     1.7250 h1         1 1K3       0.042700
     48 H17          5.9740    -2.4130     0.4040 h1         1 1K3       0.042700
     49 H18          8.3840    -2.3390     0.8580 h1         1 1K3       0.038450
     50 H19          7.9920    -1.8700    -0.8000 h1         1 1K3       0.038450
     51 H21         10.2120    -0.6280    -0.8520 h1         1 1K3       0.030700
     52 H22         10.4920     0.5590     0.4330 h1         1 1K3       0.030700
     53 H23         10.4620    -1.1620     0.8180 h1         1 1K3       0.030700
     54 H24          8.4430     1.7040    -0.0450 h1         1 1K3       0.038450
     55 H25          8.0280     0.5850    -1.3490 h1         1 1K3       0.038450
     56 H26          6.0300     1.6450    -0.5180 h1         1 1K3       0.042700
     57 H27          6.4050     1.2260     1.1570 h1         1 1K3       0.042700
@<TRIPOS>BOND
     1     1     2 1   
     2     1    32 1   
     3     1    33 1   
     4     1    34 1   
     5     2     3 1   
     6     3     4 ar  
     7     3     6 ar  
     8     4     5 ar  
     9     4    35 1   
    10     5     8 ar  
    11     5    36 1   
    12     6     7 ar  
    13     6    37 1   
    14     7     8 ar  
    15     7    38 1   
    16     8     9 1   
    17     9    10 2   
    18     9    11 1   
    19    10    17 1   
    20    10    39 1   
    21    11    12 1   
    22    11    15 1   
    23    12    13 2   
    24    13    14 1   
    25    13    18 1   
    26    14    15 2   
    27    15    16 1   
    28    16    17 2   
    29    16    40 1   
    30    17    41 1   
    31    18    19 1   
    32    18    42 1   
    33    19    20 ar  
    34    19    24 ar  
    35    20    21 ar  
    36    20    43 1   
    37    21    22 ar  
    38    21    44 1   
    39    22    23 ar  
    40    22    25 1   
    41    23    24 ar  
    42    23    45 1   
    43    24    46 1   
    44    25    26 1   
    45    25    31 1   
    46    26    27 1   
    47    26    47 1   
    48    26    48 1   
    49    27    28 1   
    50    27    49 1   
    51    27    50 1   
    52    28    29 1   
    53    28    30 1   
    54    29    51 1   
    55    29    52 1   
    56    29    53 1   
    57    30    31 1   
    58    30    54 1   
    59    30    55 1   
    60    31    56 1   
    61    31    57 1   
@<TRIPOS>SUBSTRUCTURE
     1 1K3         1 TEMP              0 ****  ****    0 ROOT
