@<TRIPOS>MOLECULE
1K3
   57    61     1     0     0
SMALL
No Charge or Current Charge


@<TRIPOS>ATOM
      1 C24         -9.0720    -2.6990    -0.6810 c3         1 1K3       0.147900
      2 O1          -7.9020    -2.6450     0.1540 os         1 1K3      -0.338100
      3 C10         -6.9910    -1.6110     0.0780 ca         1 1K3       0.161100
      4 C9          -5.8820    -1.6500     0.9350 ca         1 1K3      -0.182500
      5 C8          -4.9190    -0.6270     0.9050 ca         1 1K3      -0.033500
      6 C11         -7.1360    -0.5320    -0.8180 ca         1 1K3      -0.182500
      7 C12         -6.1730     0.4930    -0.8480 ca         1 1K3      -0.033500
      8 C7          -5.0550     0.4560     0.0110 ca         1 1K3      -0.096000
      9 C3          -4.0560     1.5340    -0.0210 cc         1 1K3       0.031000
     10 C2          -4.5130     2.8560    -0.0200 cd         1 1K3      -0.174000
     11 N1          -2.6580     1.3620     0.0180 na         1 1K3       0.308400
     12 N2          -2.0310     0.1610    -0.0170 nc         1 1K3      -0.674100
     13 C6          -0.7920     0.5890    -0.0020 cd         1 1K3       0.773200
     14 N3          -0.5720     1.9500    -0.0160 nd         1 1K3      -0.447300
     15 C4          -1.7970     2.4280    -0.0030 cc         1 1K3      -0.029000
     16 C5          -2.2640     3.7690    -0.0180 cc         1 1K3      -0.113000
     17 C1          -3.6200     3.9910    -0.0200 cd         1 1K3      -0.069000
     18 N4           0.2000    -0.3140    -0.0700 nu         1 1K3      -0.890200
     19 C13          1.5930    -0.2670    -0.0040 ca         1 1K3       0.293000
     20 C18          2.3200    -1.3800    -0.4580 ca         1 1K3      -0.128500
     21 C17          3.7270    -1.3920    -0.4060 ca         1 1K3      -0.125500
     22 C16          4.4380    -0.2910     0.1100 ca         1 1K3       0.253000
     23 C15          3.7070     0.8210     0.5750 ca         1 1K3      -0.125500
     24 C14          2.3000     0.8320     0.5230 ca         1 1K3      -0.128500
     25 N5           5.8530    -0.3210     0.1530 nh         1 1K3      -0.778400
     26 C22          6.5650    -1.4560     0.8250 c6         1 1K3       0.192800
     27 C21          8.0360    -1.6270     0.3220 c6         1 1K3       0.159300
     28 N6           8.8300    -0.3630     0.4040 n3         1 1K3      -0.716600
     29 C23         10.2310    -0.5400    -0.0320 c3         1 1K3       0.153100
     30 C20          8.1260     0.7230    -0.3440 c6         1 1K3       0.159300
     31 C19          6.6570     0.9450     0.1450 c6         1 1K3       0.192800
     32 H1          -9.6570    -3.6000    -0.4580 h1         1 1K3       0.043033
     33 H2          -9.7150    -1.8260    -0.5080 h1         1 1K3       0.043033
     34 H3          -8.7940    -2.7280    -1.7420 h1         1 1K3       0.043033
     35 H4          -5.7670    -2.4790     1.6300 ha         1 1K3       0.125500
     36 H5          -4.0730    -0.6720     1.5860 ha         1 1K3       0.123500
     37 H6          -7.9810    -0.4710    -1.4970 ha         1 1K3       0.125500
     38 H7          -6.2940     1.3140    -1.5520 ha         1 1K3       0.123500
     39 H8          -5.5810     3.0490    -0.0100 ha         1 1K3       0.135000
     40 H9          -1.5530     4.5900    -0.0280 ha         1 1K3       0.147000
     41 H10         -4.0120     5.0040    -0.0230 ha         1 1K3       0.125000
     42 H11         -0.2000    -1.2280    -0.2490 hn         1 1K3       0.508000
     43 H12          1.7970    -2.2420    -0.8640 ha         1 1K3       0.127000
     44 H13          4.2650    -2.2570    -0.7810 ha         1 1K3       0.113000
     45 H14          4.2220     1.6790     0.9960 ha         1 1K3       0.113000
     46 H15          1.7740     1.6960     0.9140 ha         1 1K3       0.127000
     47 H16          6.5850    -1.2820     1.9110 h1         1 1K3       0.042700
     48 H17          6.0340    -2.4040     0.6610 h1         1 1K3       0.042700
     49 H18          8.5180    -2.4170     0.9170 h1         1 1K3       0.038450
     50 H19          8.0070    -1.9850    -0.7180 h1         1 1K3       0.038450
     51 H21         10.2800    -0.8400    -1.0870 h1         1 1K3       0.030700
     52 H22         10.7940     0.3960     0.0860 h1         1 1K3       0.030700
     53 H23         10.7290    -1.3120     0.5690 h1         1 1K3       0.030700
     54 H24          8.6730     1.6720    -0.2410 h1         1 1K3       0.038450
     55 H25          8.1010     0.4840    -1.4170 h1         1 1K3       0.038450
     56 H26          6.1860     1.6900    -0.5120 h1         1 1K3       0.042700
     57 H27          6.6850     1.3720     1.1590 h1         1 1K3       0.042700
@<TRIPOS>BOND
     1     1     2 1   
     2     1    32 1   
     3     1    33 1   
     4     1    34 1   
     5     2     3 1   
     6     3     4 ar  
     7     3     6 ar  
     8     4     5 ar  
     9     4    35 1   
    10     5     8 ar  
    11     5    36 1   
    12     6     7 ar  
    13     6    37 1   
    14     7     8 ar  
    15     7    38 1   
    16     8     9 1   
    17     9    10 2   
    18     9    11 1   
    19    10    17 1   
    20    10    39 1   
    21    11    12 1   
    22    11    15 1   
    23    12    13 2   
    24    13    14 1   
    25    13    18 1   
    26    14    15 2   
    27    15    16 1   
    28    16    17 2   
    29    16    40 1   
    30    17    41 1   
    31    18    19 1   
    32    18    42 1   
    33    19    20 ar  
    34    19    24 ar  
    35    20    21 ar  
    36    20    43 1   
    37    21    22 ar  
    38    21    44 1   
    39    22    23 ar  
    40    22    25 1   
    41    23    24 ar  
    42    23    45 1   
    43    24    46 1   
    44    25    26 1   
    45    25    31 1   
    46    26    27 1   
    47    26    47 1   
    48    26    48 1   
    49    27    28 1   
    50    27    49 1   
    51    27    50 1   
    52    28    29 1   
    53    28    30 1   
    54    29    51 1   
    55    29    52 1   
    56    29    53 1   
    57    30    31 1   
    58    30    54 1   
    59    30    55 1   
    60    31    56 1   
    61    31    57 1   
@<TRIPOS>SUBSTRUCTURE
     1 1K3         1 TEMP              0 ****  ****    0 ROOT
