@<TRIPOS>MOLECULE
1K4
   45    44     1     0     0
SMALL
bcc


@<TRIPOS>ATOM
      1 OXT         -5.4130    -2.1560     0.3690 o          1 1K4      -0.826800
      2 C           -4.3260    -1.6960    -0.0340 c          1 1K4       0.927600
      3 O           -3.4180    -2.3080    -0.6200 o          1 1K4      -0.826800
      4 CA          -4.1130    -0.1820     0.2440 c3         1 1K4      -0.045300
      5 CB          -5.2050     0.6580    -0.4140 c3         1 1K4      -0.076400
      6 CAG         -5.1390     2.1210    -0.0200 c3         1 1K4       0.130400
      7 OAD         -6.2250     2.7980    -0.6200 oh         1 1K4      -0.608800
      8 N           -2.8120     0.2840    -0.1720 ns         1 1K4      -0.526900
      9 CAQ         -1.7020     0.1390     0.5670 c          1 1K4       0.669100
     10 OAB         -1.7180    -0.2760     1.7200 o          1 1K4      -0.630100
     11 CAN         -0.4240     0.6030    -0.1040 c3         1 1K4      -0.155400
     12 CAM          0.8250    -0.0900     0.4200 c3         1 1K4      -0.064400
     13 CAL          2.0970     0.4560    -0.2170 c3         1 1K4      -0.076400
     14 CAK          3.3610    -0.1980     0.3240 c3         1 1K4      -0.074400
     15 CAJ          4.6390     0.3660    -0.2840 c3         1 1K4      -0.074400
     16 CAI          5.9040    -0.2660     0.2810 c3         1 1K4      -0.075400
     17 CAH          7.1840     0.3100    -0.3100 c3         1 1K4      -0.075400
     18 CAF          8.4490    -0.3160     0.2650 c3         1 1K4      -0.075400
     19 CAA          9.7240     0.2730    -0.3210 c3         1 1K4      -0.087100
     20 H2          -4.1810    -0.0390     1.3270 h1         1 1K4       0.064700
     21 H3          -5.1430     0.5630    -1.5040 hc         1 1K4       0.059700
     22 H4          -6.1710     0.2480    -0.1140 hc         1 1K4       0.059700
     23 H5          -5.1750     2.1990     1.0750 h1         1 1K4       0.010200
     24 H6          -4.1810     2.5530    -0.3350 h1         1 1K4       0.010200
     25 H7          -6.1500     3.7320    -0.4040 ho         1 1K4       0.380000
     26 H8          -2.6930     0.4940    -1.1510 hn         1 1K4       0.291500
     27 H9          -0.4980     0.4790    -1.1880 hc         1 1K4       0.039700
     28 H10         -0.3380     1.6820     0.0670 hc         1 1K4       0.039700
     29 H11          0.8840     0.0310     1.5040 hc         1 1K4       0.056200
     30 H12          0.7580    -1.1660     0.2340 hc         1 1K4       0.056200
     31 H13          2.0520     0.3230    -1.3030 hc         1 1K4       0.029200
     32 H14          2.1500     1.5380    -0.0490 hc         1 1K4       0.029200
     33 H15          3.3940    -0.0730     1.4120 hc         1 1K4       0.039700
     34 H16          3.3180    -1.2780     0.1460 hc         1 1K4       0.039700
     35 H17          4.6170     0.2280    -1.3710 hc         1 1K4       0.033700
     36 H18          4.6710     1.4490    -0.1200 hc         1 1K4       0.033700
     37 H19          5.9180    -0.1350     1.3690 hc         1 1K4       0.036700
     38 H20          5.8790    -1.3480     0.1100 hc         1 1K4       0.036700
     39 H21          7.1760     0.1770    -1.3980 hc         1 1K4       0.035200
     40 H22          7.2070     1.3930    -0.1400 hc         1 1K4       0.035200
     41 H23          8.4520    -0.1880     1.3520 hc         1 1K4       0.036200
     42 H24          8.4290    -1.3960     0.0900 hc         1 1K4       0.036200
     43 H25          9.7670     0.1270    -1.4020 hc         1 1K4       0.028367
     44 H26          9.7850     1.3470    -0.1340 hc         1 1K4       0.028367
     45 H27         10.6140    -0.1890     0.1100 hc         1 1K4       0.028367
@<TRIPOS>BOND
     1     1     2 1   
     2     2     3 1   
     3     2     4 1   
     4     4     5 1   
     5     4     8 1   
     6     4    20 1   
     7     5     6 1   
     8     5    21 1   
     9     5    22 1   
    10     6     7 1   
    11     6    23 1   
    12     6    24 1   
    13     7    25 1   
    14     8     9 1   
    15     8    26 1   
    16     9    10 2   
    17     9    11 1   
    18    11    12 1   
    19    11    27 1   
    20    11    28 1   
    21    12    13 1   
    22    12    29 1   
    23    12    30 1   
    24    13    14 1   
    25    13    31 1   
    26    13    32 1   
    27    14    15 1   
    28    14    33 1   
    29    14    34 1   
    30    15    16 1   
    31    15    35 1   
    32    15    36 1   
    33    16    17 1   
    34    16    37 1   
    35    16    38 1   
    36    17    18 1   
    37    17    39 1   
    38    17    40 1   
    39    18    19 1   
    40    18    41 1   
    41    18    42 1   
    42    19    43 1   
    43    19    44 1   
    44    19    45 1   
@<TRIPOS>SUBSTRUCTURE
     1 1K4         1 TEMP              0 ****  ****    0 ROOT
