@<TRIPOS>MOLECULE
1K4
   45    44     1     0     0
SMALL
No Charge or Current Charge


@<TRIPOS>ATOM
      1 OXT         -4.4050    -2.8530     0.4210 o          1 1K4      -0.721500
      2 C           -4.1330    -1.9910    -0.4030 c          1 1K4       0.717000
      3 O           -3.9160    -2.2350    -1.5830 o          1 1K4      -0.721500
      4 CA          -3.9510    -0.5260     0.1000 c3         1 1K4      -0.045300
      5 CB          -5.1070     0.3830    -0.3920 c3         1 1K4      -0.076400
      6 CAG         -5.1020     1.8020     0.2140 c3         1 1K4       0.153600
      7 OAD         -6.2500     2.5250    -0.2390 oh         1 1K4      -0.671000
      8 N           -2.6180    -0.0070    -0.2990 ns         1 1K4      -0.459900
      9 CAQ         -1.8070     0.8000     0.4710 c          1 1K4       0.602100
     10 OAB         -2.1250     1.1800     1.5900 o          1 1K4      -0.630100
     11 CAN         -0.4900     1.2150    -0.1980 c3         1 1K4      -0.155400
     12 CAM          0.7180     0.4740     0.4210 c3         1 1K4      -0.064400
     13 CAL          2.0630     0.8630    -0.2310 c3         1 1K4      -0.076400
     14 CAK          3.2710     0.1240     0.3850 c3         1 1K4      -0.074400
     15 CAJ          4.6150     0.5140    -0.2670 c3         1 1K4      -0.074400
     16 CAI          5.8230    -0.2250     0.3500 c3         1 1K4      -0.075400
     17 CAH          7.1670     0.1650    -0.3030 c3         1 1K4      -0.075400
     18 CAF          8.3750    -0.5730     0.3130 c3         1 1K4      -0.075400
     19 CAA          9.7170    -0.1850    -0.3370 c3         1 1K4      -0.087100
     20 H2          -3.9910    -0.5670     1.1960 h1         1 1K4       0.064700
     21 H3          -5.0710     0.4580    -1.4860 hc         1 1K4       0.059700
     22 H4          -6.0590    -0.1000    -0.1400 hc         1 1K4       0.059700
     23 H5          -5.1100     1.7280     1.3100 h1         1 1K4       0.010200
     24 H6          -4.1850     2.3270    -0.0860 h1         1 1K4       0.010200
     25 H7          -6.2050     3.4160     0.1730 ho         1 1K4       0.419000
     26 H8          -2.2580    -0.2750    -1.2080 hn         1 1K4       0.291500
     27 H9          -0.5250     0.9870    -1.2700 hc         1 1K4       0.039700
     28 H10         -0.3460     2.2930    -0.0540 hc         1 1K4       0.039700
     29 H11          0.7630     0.6900     1.4960 hc         1 1K4       0.056200
     30 H12          0.5670    -0.6080     0.3190 hc         1 1K4       0.056200
     31 H13          2.0190     0.6460    -1.3060 hc         1 1K4       0.029200
     32 H14          2.2130     1.9460    -0.1290 hc         1 1K4       0.029200
     33 H15          3.3160     0.3420     1.4600 hc         1 1K4       0.039700
     34 H16          3.1210    -0.9580     0.2830 hc         1 1K4       0.039700
     35 H17          4.5700     0.2970    -1.3420 hc         1 1K4       0.033700
     36 H18          4.7650     1.5960    -0.1650 hc         1 1K4       0.033700
     37 H19          5.8680    -0.0070     1.4240 hc         1 1K4       0.036700
     38 H20          5.6740    -1.3070     0.2480 hc         1 1K4       0.036700
     39 H21          7.1230    -0.0520    -1.3780 hc         1 1K4       0.035200
     40 H22          7.3170     1.2470    -0.2010 hc         1 1K4       0.035200
     41 H23          8.4250    -0.3570     1.3880 hc         1 1K4       0.036200
     42 H24          8.2310    -1.6560     0.2110 hc         1 1K4       0.036200
     43 H25          9.7120    -0.4220    -1.4080 hc         1 1K4       0.028367
     44 H26          9.9080     0.8890    -0.2210 hc         1 1K4       0.028367
     45 H27         10.5420    -0.7330     0.1320 hc         1 1K4       0.028367
@<TRIPOS>BOND
     1     1     2 1   
     2     2     3 1   
     3     2     4 1   
     4     4     5 1   
     5     4     8 1   
     6     4    20 1   
     7     5     6 1   
     8     5    21 1   
     9     5    22 1   
    10     6     7 1   
    11     6    23 1   
    12     6    24 1   
    13     7    25 1   
    14     8     9 1   
    15     8    26 1   
    16     9    10 2   
    17     9    11 1   
    18    11    12 1   
    19    11    27 1   
    20    11    28 1   
    21    12    13 1   
    22    12    29 1   
    23    12    30 1   
    24    13    14 1   
    25    13    31 1   
    26    13    32 1   
    27    14    15 1   
    28    14    33 1   
    29    14    34 1   
    30    15    16 1   
    31    15    35 1   
    32    15    36 1   
    33    16    17 1   
    34    16    37 1   
    35    16    38 1   
    36    17    18 1   
    37    17    39 1   
    38    17    40 1   
    39    18    19 1   
    40    18    41 1   
    41    18    42 1   
    42    19    43 1   
    43    19    44 1   
    44    19    45 1   
@<TRIPOS>SUBSTRUCTURE
     1 1K4         1 TEMP              0 ****  ****    0 ROOT
