@<TRIPOS>MOLECULE
1K5
   29    31     1     0     0
SMALL
abcg2


@<TRIPOS>ATOM
      1 C10         -1.2040    -0.0390     0.2400 ca         1 1K5       0.377000
      2 C13         -3.6420    -1.3870    -0.1940 ca         1 1K5      -0.189000
      3 C01          2.3970     0.6980     0.2670 ca         1 1K5      -0.153500
      4 C02          3.5940     0.0530     0.0600 ca         1 1K5      -0.066000
      5 C03          3.6450    -1.3220    -0.1870 ca         1 1K5      -0.189000
      6 C04          2.4680    -2.0290    -0.2300 ca         1 1K5      -0.028000
      7 C05          1.2320    -1.3990    -0.0250 ca         1 1K5      -0.242600
      8 C06          1.1830    -0.0170     0.2430 ca         1 1K5       0.377000
      9 N07         -0.0170     0.6070     0.4830 na         1 1K5      -0.737200
     10 C08          0.0090    -2.1880    -0.1070 c          1 1K5       0.609300
     11 C09         -1.2290    -1.4210    -0.0280 ca         1 1K5      -0.242600
     12 C11         -2.4300     0.6550     0.2600 ca         1 1K5      -0.153500
     13 C12         -2.4530    -2.0730    -0.2340 ca         1 1K5      -0.028000
     14 C14         -3.6150    -0.0110     0.0510 ca         1 1K5      -0.066000
     15 O15          0.0200    -3.4050    -0.2630 o          1 1K5      -0.604100
     16 C16         -0.0300     1.9960     0.9040 c3         1 1K5       0.042800
     17 O17         -0.0590     4.2050     0.1010 o          1 1K5      -0.707000
     18 O18         -0.0210     2.5560    -1.4120 o          1 1K5      -0.707000
     19 C19         -0.0380     3.0140    -0.2600 c          1 1K5       0.708000
     20 H1          -4.5810    -1.8980    -0.3590 ha         1 1K5       0.100000
     21 H2           2.4160     1.7640     0.4300 ha         1 1K5       0.139500
     22 H3           4.5080     0.6320     0.0810 ha         1 1K5       0.099000
     23 H4           4.5930    -1.8160    -0.3500 ha         1 1K5       0.100000
     24 H5           2.4780    -3.0920    -0.4280 ha         1 1K5       0.118500
     25 H6          -2.4690     1.7220     0.4210 ha         1 1K5       0.139500
     26 H7          -2.4420    -3.1370    -0.4310 ha         1 1K5       0.118500
     27 H8          -4.5390     0.5520     0.0680 ha         1 1K5       0.099000
     28 H9          -0.8900     2.1590     1.5530 h1         1 1K5       0.043200
     29 H10          0.8270     2.1740     1.5520 h1         1 1K5       0.043200
@<TRIPOS>BOND
     1     1     9 1   
     2     1    11 ar  
     3     1    12 ar  
     4     2    13 ar  
     5     2    14 ar  
     6     2    20 1   
     7     3     4 ar  
     8     3     8 ar  
     9     3    21 1   
    10     4     5 ar  
    11     4    22 1   
    12     5     6 ar  
    13     5    23 1   
    14     6     7 ar  
    15     6    24 1   
    16     7     8 ar  
    17     7    10 1   
    18     8     9 1   
    19     9    16 1   
    20    10    11 1   
    21    10    15 2   
    22    11    13 ar  
    23    12    14 ar  
    24    12    25 1   
    25    13    26 1   
    26    14    27 1   
    27    16    19 1   
    28    16    28 1   
    29    16    29 1   
    30    17    19 1   
    31    18    19 1   
@<TRIPOS>SUBSTRUCTURE
     1 1K5         1 TEMP              0 ****  ****    0 ROOT
