@<TRIPOS>MOLECULE
1K5
   29    31     1     0     0
SMALL
No Charge or Current Charge


@<TRIPOS>ATOM
      1 C10         -1.1930    -0.0180     0.0330 ca         1 1K5       0.377000
      2 C13         -3.6650    -1.3470    -0.2470 ca         1 1K5      -0.189000
      3 C01          2.3970     0.6620    -0.3260 ca         1 1K5      -0.153500
      4 C02          3.6130    -0.0190    -0.5040 ca         1 1K5      -0.066000
      5 C03          3.6570    -1.4140    -0.3590 ca         1 1K5      -0.189000
      6 C04          2.4870    -2.1250    -0.0500 ca         1 1K5      -0.028000
      7 C05          1.2670    -1.4370     0.1190 ca         1 1K5      -0.242600
      8 C06          1.2190    -0.0410    -0.0050 ca         1 1K5       0.377000
      9 N07          0.0230     0.6420     0.2410 na         1 1K5      -0.737200
     10 C08         -0.0010    -2.1710     0.3830 c          1 1K5       0.609300
     11 C09         -1.2630    -1.4140     0.1600 ca         1 1K5      -0.242600
     12 C11         -2.3660     0.7050    -0.2590 ca         1 1K5      -0.153500
     13 C12         -2.5000    -2.0800     0.0290 ca         1 1K5      -0.028000
     14 C14         -3.5990     0.0450    -0.3990 ca         1 1K5      -0.066000
     15 O15         -0.0060    -3.3460     0.7350 o          1 1K5      -0.604100
     16 C16          0.0490     1.8720     1.1190 c3         1 1K5       0.042800
     17 O17         -1.1720     3.9150     0.7780 o          1 1K5      -0.707000
     18 O18          0.6330     3.6810    -0.3690 o          1 1K5      -0.707000
     19 C19         -0.1830     3.2730     0.4480 c          1 1K5       0.708000
     20 H1          -4.6170    -1.8610    -0.3530 ha         1 1K5       0.100000
     21 H2           2.3750     1.7400    -0.4330 ha         1 1K5       0.139500
     22 H3           4.5170     0.5340    -0.7490 ha         1 1K5       0.099000
     23 H4           4.5960    -1.9450    -0.4950 ha         1 1K5       0.100000
     24 H5           2.5280    -3.2090     0.0420 ha         1 1K5       0.118500
     25 H6          -2.3300     1.7810    -0.3770 ha         1 1K5       0.139500
     26 H7          -2.5580    -3.1630     0.1260 ha         1 1K5       0.118500
     27 H8          -4.4990     0.6140    -0.6210 ha         1 1K5       0.099000
     28 H9          -0.7140     1.7540     1.9000 h1         1 1K5       0.043200
     29 H10          1.0140     1.9250     1.6400 h1         1 1K5       0.043200
@<TRIPOS>BOND
     1     1     9 1   
     2     1    11 ar  
     3     1    12 ar  
     4     2    13 ar  
     5     2    14 ar  
     6     2    20 1   
     7     3     4 ar  
     8     3     8 ar  
     9     3    21 1   
    10     4     5 ar  
    11     4    22 1   
    12     5     6 ar  
    13     5    23 1   
    14     6     7 ar  
    15     6    24 1   
    16     7     8 ar  
    17     7    10 1   
    18     8     9 1   
    19     9    16 1   
    20    10    11 1   
    21    10    15 2   
    22    11    13 ar  
    23    12    14 ar  
    24    12    25 1   
    25    13    26 1   
    26    14    27 1   
    27    16    19 1   
    28    16    28 1   
    29    16    29 1   
    30    17    19 1   
    31    18    19 1   
@<TRIPOS>SUBSTRUCTURE
     1 1K5         1 TEMP              0 ****  ****    0 ROOT
