@<TRIPOS>MOLECULE
1K6
   25    24     1     0     0
SMALL
No Charge or Current Charge


@<TRIPOS>ATOM
      1 O40          0.1970    -2.5660    -0.1650 o          1 1K6      -0.529100
      2 C39         -0.0170    -1.5330     0.4610 c          1 1K6       0.593900
      3 C34         -0.1850    -0.1580    -0.2100 c3         1 1K6      -0.178700
      4 C35         -1.6080     0.4510     0.0610 c3         1 1K6      -0.048700
      5 C37         -2.7440    -0.5430    -0.3390 c3         1 1K6      -0.081400
      6 C38         -4.1770    -0.0870     0.0170 c3         1 1K6      -0.084100
      7 C36         -1.7950     1.8290    -0.6340 c3         1 1K6      -0.077100
      8 C32          1.0120     0.7550     0.2050 c3         1 1K6       0.022300
      9 O33          0.9770     0.9890     1.6370 oh         1 1K6      -0.716000
     10 C30          2.4010     0.1690    -0.2630 c          1 1K6       0.694000
     11 O31          3.1950    -0.1590     0.6100 o          1 1K6      -0.711000
     12 H2          -0.1170    -1.5500     1.5690 h4         1 1K6      -0.039800
     13 H4          -0.1030    -0.3280    -1.2900 hc         1 1K6       0.085700
     14 H5          -1.6980     0.6210     1.1420 hc         1 1K6       0.050700
     15 H6          -2.6930    -0.7420    -1.4170 hc         1 1K6       0.035200
     16 H7          -2.5870    -1.5050     0.1620 hc         1 1K6       0.035200
     17 H8          -4.8870    -0.9030    -0.1590 hc         1 1K6       0.022033
     18 H9          -4.2430     0.2010     1.0730 hc         1 1K6       0.022033
     19 H10         -4.4920     0.7630    -0.6000 hc         1 1K6       0.022033
     20 H11         -1.6880     1.7350    -1.7220 hc         1 1K6       0.026700
     21 H12         -2.7810     2.2540    -0.4220 hc         1 1K6       0.026700
     22 H13         -1.0640     2.5610    -0.2770 hc         1 1K6       0.026700
     23 H14          0.9230     1.7130    -0.3200 h1         1 1K6       0.036700
     24 H15          1.8820     0.7460     1.9560 ho         1 1K6       0.477000
     25 OXT          2.6510     0.1270    -1.4580 o          1 1K6      -0.711000
@<TRIPOS>BOND
     1     1     2 2   
     2     2     3 1   
     3     2    12 1   
     4     3     4 1   
     5     3     8 1   
     6     3    13 1   
     7     4     5 1   
     8     4     7 1   
     9     4    14 1   
    10     5     6 1   
    11     5    15 1   
    12     5    16 1   
    13     6    17 1   
    14     6    18 1   
    15     6    19 1   
    16     7    20 1   
    17     7    21 1   
    18     7    22 1   
    19     8     9 1   
    20     8    10 1   
    21     8    23 1   
    22     9    24 1   
    23    10    11 1   
    24    10    25 1   
@<TRIPOS>SUBSTRUCTURE
     1 1K6         1 TEMP              0 ****  ****    0 ROOT
