@<TRIPOS>MOLECULE
1K6
   25    24     1     0     0
SMALL
abcg2


@<TRIPOS>ATOM
      1 O40          0.5170    -2.4170     0.1470 o          1 1K6      -0.529100
      2 C39         -0.0650    -1.4380     0.5470 c          1 1K6       0.593900
      3 C34         -0.2180    -0.1500    -0.2190 c3         1 1K6      -0.178700
      4 C35         -1.5990     0.4630     0.0720 c3         1 1K6      -0.048700
      5 C37         -2.6920    -0.5110    -0.3870 c3         1 1K6      -0.081400
      6 C38         -4.1050    -0.1160     0.0220 c3         1 1K6      -0.084100
      7 C36         -1.7660     1.8290    -0.5840 c3         1 1K6      -0.077100
      8 C32          0.9710     0.7510     0.1670 c3         1 1K6       0.022300
      9 O33          1.0140     0.9510     1.5570 oh         1 1K6      -0.716000
     10 C30          2.3110     0.1450    -0.3100 c          1 1K6       0.694000
     11 O31          3.1180    -0.1120     0.6110 o          1 1K6      -0.711000
     12 H2          -0.5120    -1.4310     1.5590 h4         1 1K6      -0.039800
     13 H4          -0.1330    -0.3630    -1.2890 hc         1 1K6       0.085700
     14 H5          -1.6960     0.5870     1.1580 hc         1 1K6       0.050700
     15 H6          -2.6340    -0.6190    -1.4760 hc         1 1K6       0.035200
     16 H7          -2.4890    -1.5100     0.0170 hc         1 1K6       0.035200
     17 H8          -4.8170    -0.8980    -0.2440 hc         1 1K6       0.022033
     18 H9          -4.1740     0.0400     1.1000 hc         1 1K6       0.022033
     19 H10         -4.4350     0.7990    -0.4680 hc         1 1K6       0.022033
     20 H11         -1.5700     1.7720    -1.6580 hc         1 1K6       0.026700
     21 H12         -2.7780     2.2100    -0.4520 hc         1 1K6       0.026700
     22 H13         -1.0940     2.5750    -0.1610 hc         1 1K6       0.026700
     23 H14          0.8470     1.7130    -0.3500 h1         1 1K6       0.036700
     24 H15          1.8910     0.5850     1.7850 ho         1 1K6       0.477000
     25 OXT          2.4690    -0.0190    -1.5280 o          1 1K6      -0.711000
@<TRIPOS>BOND
     1     1     2 2   
     2     2     3 1   
     3     2    12 1   
     4     3     4 1   
     5     3     8 1   
     6     3    13 1   
     7     4     5 1   
     8     4     7 1   
     9     4    14 1   
    10     5     6 1   
    11     5    15 1   
    12     5    16 1   
    13     6    17 1   
    14     6    18 1   
    15     6    19 1   
    16     7    20 1   
    17     7    21 1   
    18     7    22 1   
    19     8     9 1   
    20     8    10 1   
    21     8    23 1   
    22     9    24 1   
    23    10    11 1   
    24    10    25 1   
@<TRIPOS>SUBSTRUCTURE
     1 1K6         1 TEMP              0 ****  ****    0 ROOT
