@<TRIPOS>MOLECULE
1K7
   35    36     1     0     0
SMALL
No Charge or Current Charge


@<TRIPOS>ATOM
      1 N29          4.7880     1.7110    -1.0770 n8         1 1K7      -0.983200
      2 C28          4.9590     0.5020    -0.2980 cx         1 1K7       0.083500
      3 C27          4.3760     0.4620     1.0960 cx         1 1K7      -0.125400
      4 C26          3.7720    -0.3890     0.0030 cx         1 1K7      -0.089700
      5 C25          2.3610    -0.1060    -0.5240 c3         1 1K7      -0.035400
      6 C9           1.2340    -0.7760     0.3070 c3         1 1K7       0.160500
      7 C8          -0.1730    -0.2920    -0.1260 c3         1 1K7      -0.115400
      8 C7          -1.3330    -0.7960     0.7650 c3         1 1K7      -0.032100
      9 C6          -2.6700    -0.1940     0.3520 ca         1 1K7      -0.079300
     10 C1          -3.4420    -0.8040    -0.6570 ca         1 1K7      -0.107500
     11 C2          -4.6740    -0.2470    -1.0420 ca         1 1K7      -0.108500
     12 C3          -5.1410     0.9240    -0.4220 ca         1 1K7      -0.111000
     13 C4          -4.3750     1.5380     0.5840 ca         1 1K7      -0.108500
     14 C5          -3.1430     0.9810     0.9690 ca         1 1K7      -0.107500
     15 N10          1.3170    -2.2490     0.2200 n8         1 1K7      -0.997200
     16 H22          5.5550     2.3640    -0.8760 hn         1 1K7       0.399000
     17 H23          5.9270     0.0240    -0.4630 h1         1 1K7       0.049700
     18 H24          4.9500    -0.0430     1.8680 hc         1 1K7       0.072700
     19 H25          3.8120     1.3250     1.4410 hc         1 1K7       0.072700
     20 H26          3.9880    -1.4540     0.0430 hc         1 1K7       0.086700
     21 H27          2.1830     0.9760    -0.5330 hc         1 1K7       0.048700
     22 H28          2.2870    -0.4350    -1.5680 hc         1 1K7       0.048700
     23 H29          1.3790    -0.4880     1.3590 h1         1 1K7       0.058700
     24 H30         -0.1840     0.8050    -0.1090 hc         1 1K7       0.048700
     25 H31         -1.3920    -1.8900     0.7170 hc         1 1K7       0.043700
     26 H32         -3.0860    -1.7090    -1.1440 ha         1 1K7       0.109500
     27 H33         -5.2660    -0.7220    -1.8210 ha         1 1K7       0.111500
     28 H34         -6.0950     1.3560    -0.7200 ha         1 1K7       0.112000
     29 H35         -4.7350     2.4460     1.0640 ha         1 1K7       0.111500
     30 H36         -2.5550     1.4640     1.7460 ha         1 1K7       0.109500
     31 H37          0.5420    -2.6540     0.7550 hn         1 1K7       0.390500
     32 H2           1.1190    -2.5340    -0.7440 hn         1 1K7       0.390500
     33 H1           4.9150     1.5000    -2.0750 hn         1 1K7       0.399000
     34 H3          -0.3600    -0.5870    -1.1670 hc         1 1K7       0.048700
     35 H4          -1.1170    -0.5460     1.8120 hc         1 1K7       0.043700
@<TRIPOS>BOND
     1     1     2 1   
     2     1    16 1   
     3     1    33 1   
     4     2     3 1   
     5     2     4 1   
     6     2    17 1   
     7     3     4 1   
     8     3    18 1   
     9     3    19 1   
    10     4     5 1   
    11     4    20 1   
    12     5     6 1   
    13     5    21 1   
    14     5    22 1   
    15     6     7 1   
    16     6    15 1   
    17     6    23 1   
    18     7     8 1   
    19     7    24 1   
    20     7    34 1   
    21     8     9 1   
    22     8    25 1   
    23     8    35 1   
    24     9    10 ar  
    25     9    14 ar  
    26    10    11 ar  
    27    10    26 1   
    28    11    12 ar  
    29    11    27 1   
    30    12    13 ar  
    31    12    28 1   
    32    13    14 ar  
    33    13    29 1   
    34    14    30 1   
    35    15    31 1   
    36    15    32 1   
@<TRIPOS>SUBSTRUCTURE
     1 1K7         1 TEMP              0 ****  ****    0 ROOT
