@<TRIPOS>MOLECULE
1K7
   35    36     1     0     0
SMALL
bcc


@<TRIPOS>ATOM
      1 N29          4.6600     1.7300    -0.9820 n8         1 1K7      -0.872800
      2 C28          4.8820     0.4630    -0.3480 cx         1 1K7       0.083500
      3 C27          4.3750     0.2830     1.0510 cx         1 1K7      -0.125400
      4 C26          3.7080    -0.4350    -0.0860 cx         1 1K7      -0.089700
      5 C25          2.3130    -0.0540    -0.5040 c3         1 1K7      -0.035400
      6 C9           1.2270    -0.7250     0.3370 c3         1 1K7       0.160500
      7 C8          -0.1530    -0.1910    -0.0670 c3         1 1K7      -0.115400
      8 C7          -1.3000    -0.7500     0.7760 c3         1 1K7      -0.032100
      9 C6          -2.6310    -0.1940     0.3550 ca         1 1K7      -0.079300
     10 C1          -3.4090    -0.8480    -0.5990 ca         1 1K7      -0.125500
     11 C2          -4.6210    -0.3160    -1.0180 ca         1 1K7      -0.126500
     12 C3          -5.0780     0.8830    -0.4880 ca         1 1K7      -0.129000
     13 C4          -4.3130     1.5450     0.4630 ca         1 1K7      -0.126500
     14 C5          -3.1010     1.0090     0.8780 ca         1 1K7      -0.125500
     15 N10          1.3580    -2.1740     0.2480 n8         1 1K7      -0.886800
     16 H22          5.3980     2.3730    -0.7280 hn         1 1K7       0.343800
     17 H23          5.8140    -0.0560    -0.5760 h1         1 1K7       0.049700
     18 H24          4.9740    -0.2800     1.7570 hc         1 1K7       0.072700
     19 H25          3.8370     1.1190     1.4850 hc         1 1K7       0.072700
     20 H26          3.9200    -1.4960    -0.1580 hc         1 1K7       0.086700
     21 H27          2.1930     1.0290    -0.4390 hc         1 1K7       0.048700
     22 H28          2.1570    -0.3160    -1.5580 hc         1 1K7       0.048700
     23 H29          1.4000    -0.4530     1.3850 h1         1 1K7       0.058700
     24 H30         -0.1530     0.9010     0.0130 hc         1 1K7       0.048700
     25 H31         -1.3230    -1.8400     0.6940 hc         1 1K7       0.043700
     26 H32         -3.0640    -1.7870    -1.0160 ha         1 1K7       0.127500
     27 H33         -5.2120    -0.8430    -1.7580 ha         1 1K7       0.129500
     28 H34         -6.0250     1.2960    -0.8110 ha         1 1K7       0.130000
     29 H35         -4.6600     2.4800     0.8860 ha         1 1K7       0.129500
     30 H36         -2.5100     1.5320     1.6230 ha         1 1K7       0.127500
     31 H37          0.7100    -2.6240     0.8820 hn         1 1K7       0.335300
     32 H2           1.0930    -2.4810    -0.6820 hn         1 1K7       0.335300
     33 H1           4.7100     1.6240    -1.9880 hn         1 1K7       0.343800
     34 H3          -0.3300    -0.4240    -1.1230 hc         1 1K7       0.048700
     35 H4          -1.1190    -0.5180     1.8300 hc         1 1K7       0.043700
@<TRIPOS>BOND
     1     1     2 1   
     2     1    16 1   
     3     1    33 1   
     4     2     3 1   
     5     2     4 1   
     6     2    17 1   
     7     3     4 1   
     8     3    18 1   
     9     3    19 1   
    10     4     5 1   
    11     4    20 1   
    12     5     6 1   
    13     5    21 1   
    14     5    22 1   
    15     6     7 1   
    16     6    15 1   
    17     6    23 1   
    18     7     8 1   
    19     7    24 1   
    20     7    34 1   
    21     8     9 1   
    22     8    25 1   
    23     8    35 1   
    24     9    10 ar  
    25     9    14 ar  
    26    10    11 ar  
    27    10    26 1   
    28    11    12 ar  
    29    11    27 1   
    30    12    13 ar  
    31    12    28 1   
    32    13    14 ar  
    33    13    29 1   
    34    14    30 1   
    35    15    31 1   
    36    15    32 1   
@<TRIPOS>SUBSTRUCTURE
     1 1K7         1 TEMP              0 ****  ****    0 ROOT
