@<TRIPOS>MOLECULE
1K8
   31    33     1     0     0
SMALL
No Charge or Current Charge


@<TRIPOS>ATOM
      1 C1          33.2890    12.5270   -38.9900 c6         1 1K8       0.144300
      2 C2          33.1260    13.8350   -39.8310 c6         1 1K8       0.160800
      3 C3          33.4050    20.1200   -41.0620 ca         1 1K8      -0.081000
      4 C4          31.5250    14.6960   -38.1210 c6         1 1K8       0.160800
      5 C5          31.7170    13.3780   -37.3040 c6         1 1K8       0.144300
      6 C6          33.2230    20.2940   -42.4430 ca         1 1K8      -0.115000
      7 C8          32.9050    16.3240   -39.4350 ca         1 1K8       0.604900
      8 C10         33.4280    18.6690   -39.1030 ca         1 1K8      -0.047000
      9 C12         32.8960    17.7270   -41.2890 ca         1 1K8       0.305000
     10 C13         32.7190    17.9250   -42.6710 ca         1 1K8      -0.092000
     11 N1          32.0820    12.2150   -38.1670 n7         1 1K8      -0.843400
     12 N3          32.7050    15.0000   -38.9890 nh         1 1K8      -0.747300
     13 C9          33.2590    17.3870   -38.5620 ca         1 1K8       0.055000
     14 C11         33.2430    18.8450   -40.4850 ca         1 1K8      -0.100000
     15 N13         32.7340    16.4920   -40.7640 nb         1 1K8      -0.731000
     16 Cl1         33.5340    17.1480   -36.8290 cl         1 1K8      -0.182000
     17 C7          32.8800    19.1970   -43.2480 ca         1 1K8      -0.094000
     18 H1          33.5070    11.6860   -39.6650 h1         1 1K8       0.061700
     19 H2          34.1590    12.6430   -38.3260 h1         1 1K8       0.061700
     20 H3          32.3830    13.6580   -40.6230 h1         1 1K8       0.049200
     21 H4          34.0860    14.0500   -40.3240 h1         1 1K8       0.049200
     22 H6          31.3340    15.5190   -37.4180 h1         1 1K8       0.049200
     23 H7          30.6250    14.5970   -38.7470 h1         1 1K8       0.049200
     24 H8          32.5090    13.5400   -36.5580 h1         1 1K8       0.061700
     25 H9          30.7920    13.1560   -36.7510 h1         1 1K8       0.061700
     26 H10         33.3480    21.2790   -42.8880 ha         1 1K8       0.117000
     27 H11         33.7030    19.5030   -38.4620 ha         1 1K8       0.133000
     28 H12         32.4540    17.0800   -43.3010 ha         1 1K8       0.130000
     29 H13         31.2990    12.0400   -38.8090 hn         1 1K8       0.401000
     30 H15         32.7390    19.3310   -44.3190 ha         1 1K8       0.117000
     31 H5          33.6720    20.9740   -40.4430 ha         1 1K8       0.116000
@<TRIPOS>BOND
     1     1     2 1   
     2     1    11 1   
     3     1    18 1   
     4     1    19 1   
     5     2    12 1   
     6     2    20 1   
     7     2    21 1   
     8     3     6 ar  
     9     3    14 ar  
    10     3    31 1   
    11     4     5 1   
    12     4    12 1   
    13     4    22 1   
    14     4    23 1   
    15     5    11 1   
    16     5    24 1   
    17     5    25 1   
    18     6    17 ar  
    19     6    26 1   
    20     7    12 1   
    21     7    13 ar  
    22     7    15 ar  
    23     8    13 ar  
    24     8    14 ar  
    25     8    27 1   
    26     9    10 ar  
    27     9    14 ar  
    28     9    15 ar  
    29    10    17 ar  
    30    10    28 1   
    31    11    29 1   
    32    13    16 1   
    33    17    30 1   
@<TRIPOS>SUBSTRUCTURE
     1 1K8         1 TEMP              0 ****  ****    0 ROOT
