@<TRIPOS>MOLECULE
1K8
   31    33     1     0     0
SMALL
bcc


@<TRIPOS>ATOM
      1 C1          33.2060    12.6160   -39.1020 c6         1 1K8       0.144300
      2 C2          32.9530    13.8960   -39.8890 c6         1 1K8       0.160800
      3 C3          33.3160    20.1100   -41.0500 ca         1 1K8      -0.099000
      4 C4          31.6040    14.7130   -38.0710 c6         1 1K8       0.160800
      5 C5          31.8660    13.4310   -37.2950 c6         1 1K8       0.144300
      6 C6          33.2470    20.2440   -42.4110 ca         1 1K8      -0.133000
      7 C8          32.8660    16.2720   -39.4510 ca         1 1K8       0.670200
      8 C10         33.2750    18.6250   -39.0620 ca         1 1K8      -0.065000
      9 C12         32.9650    17.7010   -41.2660 ca         1 1K8       0.435600
     10 C13         32.9020    17.8650   -42.6660 ca         1 1K8      -0.175300
     11 N1          32.1620    12.2900   -38.1450 n7         1 1K8      -0.788200
     12 N3          32.7390    14.9900   -38.9530 nh         1 1K8      -0.747300
     13 C9          33.1410    17.3670   -38.5660 ca         1 1K8      -0.101900
     14 C11         33.1770    18.8390   -40.4550 ca         1 1K8      -0.165300
     15 N13         32.8030    16.4650   -40.7410 nb         1 1K8      -0.731000
     16 CL1         33.4290    17.0920   -36.8830 cl         1 1K8      -0.090400
     17 C7          33.0380    19.1100   -43.2220 ca         1 1K8      -0.112000
     18 H1          33.3240    11.7840   -39.7990 h1         1 1K8       0.061700
     19 H2          34.1520    12.7160   -38.5600 h1         1 1K8       0.061700
     20 H3          32.0890    13.7590   -40.5550 h1         1 1K8       0.049200
     21 H4          33.8140    14.1180   -40.5180 h1         1 1K8       0.049200
     22 H6          31.4350    15.5360   -37.3810 h1         1 1K8       0.049200
     23 H7          30.6890    14.6040   -38.6720 h1         1 1K8       0.049200
     24 H8          32.7120    13.5950   -36.6220 h1         1 1K8       0.061700
     25 H9          30.9990    13.1990   -36.6740 h1         1 1K8       0.061700
     26 H10         33.3530    21.2180   -42.8690 ha         1 1K8       0.135000
     27 H11         33.4950    19.4580   -38.4040 ha         1 1K8       0.151000
     28 H12         32.7390    16.9910   -43.2840 ha         1 1K8       0.148000
     29 H13         31.3220    12.0270   -38.6480 hn         1 1K8       0.345800
     30 H15         32.9840    19.2280   -44.2970 ha         1 1K8       0.135000
     31 H5          33.4820    20.9740   -40.4170 ha         1 1K8       0.134000
@<TRIPOS>BOND
     1     1     2 1   
     2     1    11 1   
     3     1    18 1   
     4     1    19 1   
     5     2    12 1   
     6     2    20 1   
     7     2    21 1   
     8     3     6 ar  
     9     3    14 ar  
    10     3    31 1   
    11     4     5 1   
    12     4    12 1   
    13     4    22 1   
    14     4    23 1   
    15     5    11 1   
    16     5    24 1   
    17     5    25 1   
    18     6    17 ar  
    19     6    26 1   
    20     7    12 1   
    21     7    13 ar  
    22     7    15 ar  
    23     8    13 ar  
    24     8    14 ar  
    25     8    27 1   
    26     9    10 ar  
    27     9    14 ar  
    28     9    15 ar  
    29    10    17 ar  
    30    10    28 1   
    31    11    29 1   
    32    13    16 1   
    33    17    30 1   
@<TRIPOS>SUBSTRUCTURE
     1 1K8         1 TEMP              0 ****  ****    0 ROOT
