@<TRIPOS>MOLECULE
1K9
   50    53     1     0     0
SMALL
bcc


@<TRIPOS>ATOM
      1 FAD         -7.4970     0.2720    -0.8320 f          1 1K9      -0.234967
      2 CBE         -6.8650     0.4170     0.3420 c3         1 1K9       0.720200
      3 FAE         -6.6650     1.7260     0.5190 f          1 1K9      -0.234967
      4 FAF         -7.7280     0.0210     1.2880 f          1 1K9      -0.234967
      5 CAZ         -5.5980    -0.3790     0.3850 ca         1 1K9      -0.168300
      6 CAO         -4.3750     0.2400     0.5690 ca         1 1K9      -0.139000
      7 CAJ         -5.6770    -1.7590     0.2220 ca         1 1K9      -0.105000
      8 CAG         -4.5100    -2.5010     0.2610 ca         1 1K9      -0.108000
      9 CAI         -3.2750    -1.8980     0.4570 ca         1 1K9      -0.114000
     10 CAX         -3.1990    -0.5140     0.6060 ca         1 1K9       0.080600
     11 NAS         -2.0120     0.1810     0.8340 ns         1 1K9      -0.491100
     12 CAW         -0.7490    -0.2080     0.4750 c          1 1K9       0.800100
     13 OAA         -0.4900    -1.2630    -0.0720 o          1 1K9      -0.600100
     14 NAT          0.1990     0.7250     0.8000 ns         1 1K9      -0.497100
     15 CBB          1.5610     0.6140     0.5090 ca         1 1K9       0.064600
     16 CAP          2.2380    -0.5820     0.7200 ca         1 1K9      -0.028000
     17 CBA          3.6010    -0.6460     0.4840 ca         1 1K9      -0.249500
     18 SBF          4.4280    -2.1880     0.7600 sy         1 1K9       1.296200
     19 OAB          5.8550    -1.9100     0.8310 o          1 1K9      -0.614800
     20 OAC          3.8010    -2.8850     1.8740 o          1 1K9      -0.614800
     21 NAU          3.9990    -3.0320    -0.5900 n7         1 1K9      -0.807100
     22 CBD          4.5240    -2.6270    -1.8640 cx         1 1K9       0.143500
     23 CAQ          4.9120    -3.6910    -2.8370 cx         1 1K9      -0.138900
     24 CAR          5.9660    -2.8220    -2.2250 cx         1 1K9      -0.138900
     25 CAL          4.3220     0.4600     0.0660 ca         1 1K9      -0.050000
     26 CAM          3.6410     1.6490    -0.1310 ca         1 1K9      -0.124000
     27 CBC          2.2660     1.7480     0.0680 ca         1 1K9       0.000000
     28 CAY          1.6070     3.0430    -0.1710 cc         1 1K9      -0.079000
     29 CAK          2.1430     4.2860     0.2870 cc         1 1K9      -0.137000
     30 CAH          1.3920     5.3550    -0.0870 cd         1 1K9      -0.118100
     31 SAV          0.0290     4.8740    -1.0060 ss         1 1K9      -0.058800
     32 CAN          0.4540     3.2240    -0.8870 cd         1 1K9      -0.123100
     33 H1          -4.3090     1.3150     0.6820 ha         1 1K9       0.143000
     34 H2          -6.6260    -2.2550     0.0690 ha         1 1K9       0.150000
     35 H3          -4.5560    -3.5750     0.1470 ha         1 1K9       0.143000
     36 H4          -2.3900    -2.5120     0.5000 ha         1 1K9       0.170000
     37 H5          -2.1290     1.1160     1.1950 hn         1 1K9       0.317500
     38 H6          -0.1070     1.6290     1.1300 hn         1 1K9       0.324500
     39 H7           1.7080    -1.4440     1.0950 ha         1 1K9       0.175000
     40 H8           3.9490    -4.0300    -0.4140 hn         1 1K9       0.439800
     41 H9           4.0250    -1.7550    -2.2690 h1         1 1K9       0.102700
     42 H10          4.8540    -4.7200    -2.5030 hc         1 1K9       0.082450
     43 H11          4.6410    -3.5420    -3.8730 hc         1 1K9       0.082450
     44 H12          6.4370    -2.0630    -2.8350 hc         1 1K9       0.082450
     45 H13          6.6130    -3.2690    -1.4810 hc         1 1K9       0.082450
     46 H14          5.3870     0.4080    -0.1090 ha         1 1K9       0.161000
     47 H15          4.1870     2.5190    -0.4710 ha         1 1K9       0.141000
     48 H16          3.0390     4.3680     0.8850 ha         1 1K9       0.160000
     49 H17          1.5630     6.3960     0.1370 h4         1 1K9       0.174000
     50 H18         -0.1460     2.4760    -1.3820 h4         1 1K9       0.175000
@<TRIPOS>BOND
     1     1     2 1   
     2     2     3 1   
     3     2     4 1   
     4     2     5 1   
     5     5     6 ar  
     6     5     7 ar  
     7     6    10 ar  
     8     6    33 1   
     9     7     8 ar  
    10     7    34 1   
    11     8     9 ar  
    12     8    35 1   
    13     9    10 ar  
    14     9    36 1   
    15    10    11 1   
    16    11    12 1   
    17    11    37 1   
    18    12    13 2   
    19    12    14 1   
    20    14    15 1   
    21    14    38 1   
    22    15    16 ar  
    23    15    27 ar  
    24    16    17 ar  
    25    16    39 1   
    26    17    18 1   
    27    17    25 ar  
    28    18    19 2   
    29    18    20 2   
    30    18    21 1   
    31    21    22 1   
    32    21    40 1   
    33    22    23 1   
    34    22    24 1   
    35    22    41 1   
    36    23    24 1   
    37    23    42 1   
    38    23    43 1   
    39    24    44 1   
    40    24    45 1   
    41    25    26 ar  
    42    25    46 1   
    43    26    27 ar  
    44    26    47 1   
    45    27    28 1   
    46    28    29 1   
    47    28    32 2   
    48    29    30 2   
    49    29    48 1   
    50    30    31 1   
    51    30    49 1   
    52    31    32 1   
    53    32    50 1   
@<TRIPOS>SUBSTRUCTURE
     1 1K9         1 TEMP              0 ****  ****    0 ROOT
