@<TRIPOS>MOLECULE
1K9
   50    53     1     0     0
SMALL
No Charge or Current Charge


@<TRIPOS>ATOM
      1 FAD         -7.3780     1.2420    -0.4760 f          1 1K9      -0.113667
      2 CBE         -7.0040     0.7640     0.7320 c3         1 1K9       0.356300
      3 FAE         -6.7040     1.8330     1.5050 f          1 1K9      -0.113667
      4 FAF         -8.0960     0.1850     1.2830 f          1 1K9      -0.113667
      5 CAZ         -5.8240    -0.2100     0.6050 ca         1 1K9      -0.168300
      6 CAO         -4.4970     0.2730     0.5840 ca         1 1K9      -0.121000
      7 CAJ         -6.0450    -1.5980     0.4820 ca         1 1K9      -0.087000
      8 CAG         -4.9600    -2.4800     0.3570 ca         1 1K9      -0.090000
      9 CAI         -3.6430    -1.9900     0.3470 ca         1 1K9      -0.096000
     10 CAX         -3.4010    -0.6030     0.4570 ca         1 1K9      -0.012000
     11 NAS         -2.1000    -0.0280     0.4510 ns         1 1K9      -0.165000
     12 CAW         -0.8350    -0.5780     0.3030 c          1 1K9       0.666100
     13 OAA         -0.6140    -1.7700     0.1240 o          1 1K9      -0.600100
     14 NAT          0.1520     0.3940     0.3620 ns         1 1K9      -0.171000
     15 CBB          1.5740     0.3230     0.3050 ca         1 1K9      -0.028000
     16 CAP          2.2510    -0.8810     0.6100 ca         1 1K9      -0.010000
     17 CBA          3.6570    -0.9280     0.6610 ca         1 1K9      -0.249500
     18 SBF          4.4950    -2.4820     1.0370 sy         1 1K9       1.154600
     19 OAB          5.9000    -2.2230     1.3610 o          1 1K9      -0.544000
     20 OAC          3.6300    -3.3120     1.8790 o          1 1K9      -0.544000
     21 NAU          4.5270    -3.2440    -0.4520 n7         1 1K9      -0.862300
     22 CBD          4.5380    -2.4420    -1.6540 cx         1 1K9       0.143500
     23 CAQ          5.1970    -3.0510    -2.8650 cx         1 1K9      -0.138900
     24 CAR          5.8680    -1.9130    -2.1320 cx         1 1K9      -0.138900
     25 CAL          4.3990     0.2410     0.4230 ca         1 1K9      -0.032000
     26 CAM          3.7370     1.4410     0.1290 ca         1 1K9      -0.106000
     27 CBC          2.3280     1.5050     0.0450 ca         1 1K9       0.000000
     28 CAY          1.7150     2.8060    -0.2970 cc         1 1K9      -0.079000
     29 CAK          2.2920     4.0910    -0.0960 cc         1 1K9      -0.119000
     30 CAH          1.5750     5.1250    -0.6370 cd         1 1K9      -0.245000
     31 SAV          0.1360     4.5350    -1.4780 ss         1 1K9       0.231000
     32 CAN          0.5900     2.8650    -1.0920 cd         1 1K9      -0.250000
     33 H1          -4.3130     1.3430     0.6640 ha         1 1K9       0.125000
     34 H2          -7.0560    -2.0000     0.4800 ha         1 1K9       0.132000
     35 H3          -5.1400    -3.5490     0.2660 ha         1 1K9       0.125000
     36 H4          -2.8320    -2.7040     0.2520 ha         1 1K9       0.152000
     37 H5          -2.1010     0.9750     0.5800 hn         1 1K9       0.151000
     38 H6          -0.1980     1.3370     0.4710 hn         1 1K9       0.158000
     39 H7           1.6960    -1.7880     0.8360 ha         1 1K9       0.157000
     40 H8           5.4000    -3.7590    -0.3640 hn         1 1K9       0.495000
     41 H9           3.6540    -1.8260    -1.8390 h1         1 1K9       0.102700
     42 H10          5.6310    -4.0430    -2.7720 hc         1 1K9       0.082450
     43 H11          4.7560    -2.8380    -3.8360 hc         1 1K9       0.082450
     44 H12          5.8740    -0.9360    -2.6080 hc         1 1K9       0.082450
     45 H13          6.7560    -2.1380    -1.5470 hc         1 1K9       0.082450
     46 H14          5.4870     0.2260     0.4590 ha         1 1K9       0.143000
     47 H15          4.3380     2.3240    -0.0700 ha         1 1K9       0.123000
     48 H16          3.2160     4.2350     0.4560 ha         1 1K9       0.142000
     49 H17          1.7950     6.1850    -0.6090 h4         1 1K9       0.156000
     50 H18          0.0140     2.0580    -1.5240 h4         1 1K9       0.157000
@<TRIPOS>BOND
     1     1     2 1   
     2     2     3 1   
     3     2     4 1   
     4     2     5 1   
     5     5     6 ar  
     6     5     7 ar  
     7     6    10 ar  
     8     6    33 1   
     9     7     8 ar  
    10     7    34 1   
    11     8     9 ar  
    12     8    35 1   
    13     9    10 ar  
    14     9    36 1   
    15    10    11 1   
    16    11    12 1   
    17    11    37 1   
    18    12    13 2   
    19    12    14 1   
    20    14    15 1   
    21    14    38 1   
    22    15    16 ar  
    23    15    27 ar  
    24    16    17 ar  
    25    16    39 1   
    26    17    18 1   
    27    17    25 ar  
    28    18    19 2   
    29    18    20 2   
    30    18    21 1   
    31    21    22 1   
    32    21    40 1   
    33    22    23 1   
    34    22    24 1   
    35    22    41 1   
    36    23    24 1   
    37    23    42 1   
    38    23    43 1   
    39    24    44 1   
    40    24    45 1   
    41    25    26 ar  
    42    25    46 1   
    43    26    27 ar  
    44    26    47 1   
    45    27    28 1   
    46    28    29 1   
    47    28    32 2   
    48    29    30 2   
    49    29    48 1   
    50    30    31 1   
    51    30    49 1   
    52    31    32 1   
    53    32    50 1   
@<TRIPOS>SUBSTRUCTURE
     1 1K9         1 TEMP              0 ****  ****    0 ROOT
