@<TRIPOS>MOLECULE
1KA
   15    14     1     0     0
SMALL
bcc


@<TRIPOS>ATOM
      1 C1          -2.2520     0.4490     0.1870 c          1 1KA       0.581900
      2 O1          -3.3900     0.2750     0.5390 o          1 1KA      -0.516100
      3 C2          -1.1570    -0.5580     0.4140 c3         1 1KA       0.005400
      4 O2           0.0400    -0.0250    -0.0660 os         1 1KA      -0.395600
      5 C3           1.1440    -0.8720     0.1430 c3         1 1KA       0.138400
      6 C4           2.3900    -0.2370    -0.4180 c3         1 1KA       0.140400
      7 O4           2.6830     0.9380     0.3000 oh         1 1KA      -0.585800
      8 H1          -1.9410     1.3720    -0.3350 h4         1 1KA       0.009200
      9 H2          -1.1090    -0.7980     1.4860 h1         1 1KA       0.051200
     10 H3          -1.4390    -1.4890    -0.1000 h1         1 1KA       0.051200
     11 H4           1.2780    -1.0790     1.2140 h1         1 1KA       0.031700
     12 H5           0.9960    -1.8400    -0.3550 h1         1 1KA       0.031700
     13 H6           3.1940    -0.9790    -0.3380 h1         1 1KA       0.026700
     14 H7           2.2480    -0.0370    -1.4880 h1         1 1KA       0.026700
     15 H8           3.4760     1.3260    -0.0770 ho         1 1KA       0.404000
@<TRIPOS>BOND
     1     1     2 2   
     2     1     3 1   
     3     1     8 1   
     4     3     4 1   
     5     3     9 1   
     6     3    10 1   
     7     4     5 1   
     8     5     6 1   
     9     5    11 1   
    10     5    12 1   
    11     6     7 1   
    12     6    13 1   
    13     6    14 1   
    14     7    15 1   
@<TRIPOS>SUBSTRUCTURE
     1 1KA         1 TEMP              0 ****  ****    0 ROOT
