@<TRIPOS>MOLECULE
1KA
   15    14     1     0     0
SMALL
No Charge or Current Charge


@<TRIPOS>ATOM
      1 C1          -2.3660     0.4490     0.1770 c          1 1KA       0.581900
      2 O1          -3.5530     0.1570     0.3100 o          1 1KA      -0.516100
      3 C2          -1.2130    -0.5390     0.4400 c3         1 1KA       0.028600
      4 O2           0.0460    -0.0370    -0.0660 os         1 1KA      -0.442000
      5 C3           1.1740    -0.9090     0.1560 c3         1 1KA       0.161600
      6 C4           2.4530    -0.2510    -0.4280 c3         1 1KA       0.163600
      7 O4           2.8250     0.9340     0.3030 oh         1 1KA      -0.708000
      8 H1          -2.0600     1.4750    -0.1240 h4         1 1KA       0.009200
      9 H2          -1.1560    -0.6950     1.5250 h1         1 1KA       0.051200
     10 H3          -1.4730    -1.4920    -0.0380 h1         1 1KA       0.051200
     11 H4           1.3180    -1.1000     1.2280 h1         1 1KA       0.031700
     12 H5           1.0140    -1.8740    -0.3420 h1         1 1KA       0.031700
     13 H6           3.2690    -0.9850    -0.3890 h1         1 1KA       0.026700
     14 H7           2.2780    -0.0120    -1.4860 h1         1 1KA       0.026700
     15 H8           3.6030     1.3240    -0.1600 ho         1 1KA       0.503000
@<TRIPOS>BOND
     1     1     2 2   
     2     1     3 1   
     3     1     8 1   
     4     3     4 1   
     5     3     9 1   
     6     3    10 1   
     7     4     5 1   
     8     5     6 1   
     9     5    11 1   
    10     5    12 1   
    11     6     7 1   
    12     6    13 1   
    13     6    14 1   
    14     7    15 1   
@<TRIPOS>SUBSTRUCTURE
     1 1KA         1 TEMP              0 ****  ****    0 ROOT
