@<TRIPOS>MOLECULE
1KC
   25    24     1     0     0
SMALL
No Charge or Current Charge


@<TRIPOS>ATOM
      1 CAS         -2.9870    -0.2720     0.7160 c3         1 1KC      -0.235400
      2 CBA         -4.3610     0.1420     0.1740 c          1 1KC       0.724000
      3 OAH         -4.7940     1.2380     0.4970 o          1 1KC      -0.733000
      4 OAX         -1.8600    -0.3610    -1.4360 oh         1 1KC      -0.651000
      5 CBI         -1.8680     0.3050    -0.1750 c3         1 1KC       0.204500
      6 CAO         -0.4960     0.1350     0.4470 c2         1 1KC      -0.207200
      7 CAM          0.6170     0.7800     0.0580 c2         1 1KC      -0.274200
      8 CAP          1.9880     0.6210     0.6850 c3         1 1KC      -0.022200
      9 CAQ          3.0110     0.0120    -0.2920 c3         1 1KC       0.078600
     10 SAY          4.6700    -0.1570     0.5140 ss         1 1KC      -0.471000
     11 CAB          5.6270    -0.8980    -0.8860 c3         1 1KC       0.045900
     12 H1          -2.8280     0.1910     1.6980 hc         1 1KC       0.021200
     13 H2          -2.8730    -1.3640     0.7230 hc         1 1KC       0.021200
     14 H35         -2.0570     1.3810    -0.3130 h1         1 1KC       0.097700
     15 H36         -0.4590    -0.5720     1.2780 ha         1 1KC       0.160000
     16 H38          0.5790     1.4900    -0.7720 ha         1 1KC       0.172000
     17 H40          2.3550     1.5980     1.0240 hc         1 1KC       0.046200
     18 H41          1.9300    -0.0170     1.5760 hc         1 1KC       0.046200
     19 H42          2.6650    -0.9780    -0.6180 h1         1 1KC       0.059200
     20 H43          3.1050     0.6550    -1.1780 h1         1 1KC       0.059200
     21 H44          5.1770    -1.8550    -1.1810 h1         1 1KC       0.054367
     22 H45          5.6190    -0.2160    -1.7460 h1         1 1KC       0.054367
     23 H46          6.6650    -1.0710    -0.5750 h1         1 1KC       0.054367
     24 OXT         -4.9630    -0.6360    -0.5500 o          1 1KC      -0.733000
     25 H3          -1.5120    -1.2610    -1.2650 ho         1 1KC       0.427000
@<TRIPOS>BOND
     1     1     2 1   
     2     1     5 1   
     3     1    12 1   
     4     1    13 1   
     5     2     3 1   
     6     2    24 1   
     7     4     5 1   
     8     4    25 1   
     9     5     6 1   
    10     5    14 1   
    11     6     7 2   
    12     6    15 1   
    13     7     8 1   
    14     7    16 1   
    15     8     9 1   
    16     8    17 1   
    17     8    18 1   
    18     9    10 1   
    19     9    19 1   
    20     9    20 1   
    21    10    11 1   
    22    11    21 1   
    23    11    22 1   
    24    11    23 1   
@<TRIPOS>SUBSTRUCTURE
     1 1KC         1 TEMP              0 ****  ****    0 ROOT
