@<TRIPOS>MOLECULE
1KC
   25    24     1     0     0
SMALL
bcc


@<TRIPOS>ATOM
      1 CAS         -2.4770    -0.6560     0.3570 c3         1 1KC      -0.235400
      2 CBA         -3.9790    -0.6930     0.0210 c          1 1KC       0.934600
      3 OAH         -4.6880     0.1830     0.5570 o          1 1KC      -0.838300
      4 OAX         -2.0260     1.2420    -1.0880 oh         1 1KC      -0.588800
      5 CBI         -1.8710     0.7380     0.2210 c3         1 1KC       0.181300
      6 CAO         -0.4430     0.7410     0.6870 c2         1 1KC      -0.157200
      7 CAM          0.6150     1.0840    -0.0400 c2         1 1KC      -0.224200
      8 CAP          2.0300     1.0370     0.4480 c3         1 1KC      -0.022200
      9 CAQ          2.8150    -0.0580    -0.2690 c3         1 1KC       0.030700
     10 SAY          4.5610     0.0060     0.2250 ss         1 1KC      -0.375200
     11 CAB          5.1990    -1.4110    -0.6960 c3         1 1KC      -0.002000
     12 H1          -2.3440    -0.9940     1.3910 hc         1 1KC       0.021200
     13 H2          -1.9170    -1.3600    -0.2670 hc         1 1KC       0.021200
     14 H35         -2.4430     1.4140     0.8660 h1         1 1KC       0.097700
     15 H36         -0.2970     0.4170     1.7160 ha         1 1KC       0.110000
     16 H38          0.4810     1.4110    -1.0680 ha         1 1KC       0.122000
     17 H40          2.5110     2.0020     0.2620 hc         1 1KC       0.046200
     18 H41          2.0590     0.8660     1.5260 hc         1 1KC       0.046200
     19 H42          2.4060    -1.0390    -0.0170 h1         1 1KC       0.059200
     20 H43          2.7460     0.0660    -1.3520 h1         1 1KC       0.059200
     21 H44          4.7290    -2.3370    -0.3680 h1         1 1KC       0.054367
     22 H45          5.0450    -1.2870    -1.7670 h1         1 1KC       0.054367
     23 H46          6.2680    -1.4770    -0.5030 h1         1 1KC       0.054367
     24 OXT         -4.3710    -1.6030    -0.7370 o          1 1KC      -0.838300
     25 H3          -1.6590     0.5980    -1.7030 ho         1 1KC       0.388000
@<TRIPOS>BOND
     1     1     2 1   
     2     1     5 1   
     3     1    12 1   
     4     1    13 1   
     5     2     3 1   
     6     2    24 1   
     7     4     5 1   
     8     4    25 1   
     9     5     6 1   
    10     5    14 1   
    11     6     7 2   
    12     6    15 1   
    13     7     8 1   
    14     7    16 1   
    15     8     9 1   
    16     8    17 1   
    17     8    18 1   
    18     9    10 1   
    19     9    19 1   
    20     9    20 1   
    21    10    11 1   
    22    11    21 1   
    23    11    22 1   
    24    11    23 1   
@<TRIPOS>SUBSTRUCTURE
     1 1KC         1 TEMP              0 ****  ****    0 ROOT
