@<TRIPOS>MOLECULE
1KD
   73    76     1     0     0
SMALL
No Charge or Current Charge


@<TRIPOS>ATOM
      1 C28        122.5270   132.8150    90.1980 ca         1 1KD       0.268000
      2 C26        123.2060   133.4160    92.4260 c5         1 1KD       0.215800
      3 C25        125.8390   135.6150    92.4020 c6         1 1KD       0.101500
      4 C24        125.2520   134.6610    91.3380 c6         1 1KD      -0.080900
      5 C11        127.9350   139.3320    93.9820 c3         1 1KD       0.152600
      6 C10        126.6510   134.1240    96.5000 c3         1 1KD      -0.100600
      7 C17        132.8270   138.9720    98.0990 ca         1 1KD      -0.110000
      8 C18        133.1700   139.4280    96.8140 ca         1 1KD      -0.112500
      9 C16        131.4780   138.9300    98.4900 ca         1 1KD      -0.112500
     10 C15        130.4740   139.3440    97.5980 ca         1 1KD      -0.099000
     11 C14        130.8110   139.8030    96.3090 ca         1 1KD      -0.087300
     12 C13        129.7170   140.2450    95.3460 c3         1 1KD       0.210900
     13 C23        123.6980   134.5560    91.4160 c5         1 1KD       0.000300
     14 C19        132.1660   139.8410    95.9210 ca         1 1KD      -0.099000
     15 C21        124.0460   137.1490    91.4970 c6         1 1KD       0.101500
     16 C22        123.0890   135.9580    91.7550 c6         1 1KD      -0.080900
     17 C02        126.0850   138.1490    92.6210 c          1 1KD       0.587100
     18 C03        127.2950   137.9760    93.5910 c3         1 1KD       0.029700
     19 C07        127.0720   135.5980    96.7040 c3         1 1KD       0.099200
     20 C09        128.1600   135.7040    97.8000 c3         1 1KD      -0.100600
     21 C29        123.1570   134.0380    90.0790 ca         1 1KD      -0.115300
     22 C30        123.2600   134.6640    88.8220 ca         1 1KD      -0.070000
     23 C31        122.7160   134.0230    87.6920 ca         1 1KD      -0.127000
     24 C32        122.0770   132.7730    87.8210 ca         1 1KD      -0.081000
     25 C33        121.9770   132.1580    89.0840 ca         1 1KD      -0.138000
     26 C37        123.6040   129.8930    91.2870 c3         1 1KD      -0.380100
     27 N04        126.9140   137.1820    94.7890 ns         1 1KD      -0.497900
     28 N08        125.8690   136.3350    97.2140 n8         1 1KD      -0.993200
     29 N20        125.3200   137.0110    92.2620 n          1 1KD      -0.401800
     30 N27        122.5490   132.4380    91.5260 nh         1 1KD      -0.750300
     31 O01        125.7430   139.2590    92.2270 o          1 1KD      -0.612100
     32 O06        128.6720   135.7310    94.8090 o          1 1KD      -0.592100
     33 O12        129.0570   139.0730    94.8460 os         1 1KD      -0.457000
     34 O35        121.0110   130.3730    91.5580 o          1 1KD      -0.527000
     35 O36        122.5540   130.8230    93.5260 o          1 1KD      -0.527000
     36 S34        122.3050   130.8220    92.0810 s6         1 1KD       1.217100
     37 H1         122.4930   133.8020    93.1670 h1         1 1KD       0.065200
     38 H2         124.0520   132.9730    92.9710 h1         1 1KD       0.065200
     39 H3         125.5900   135.2370    93.4040 h1         1 1KD       0.060950
     40 H4         126.9330   135.6100    92.3050 h1         1 1KD       0.060950
     41 H5         125.7030   133.6640    91.4380 hc         1 1KD       0.060200
     42 H6         125.5600   135.0230    90.3480 hc         1 1KD       0.060200
     43 H7         128.2590   139.8630    93.0770 h1         1 1KD       0.043200
     44 H8         127.1870   139.9510    94.4970 h1         1 1KD       0.043200
     45 H9         126.2570   133.6900    97.4280 hc         1 1KD       0.046867
     46 H10        125.8740   134.0450    95.7290 hc         1 1KD       0.046867
     47 H11        127.5050   133.5150    96.1800 hc         1 1KD       0.046867
     48 H13        134.2140   139.4600    96.5100 ha         1 1KD       0.111500
     49 H14        131.2110   138.5760    99.4830 ha         1 1KD       0.111500
     50 H15        129.4310   139.3070    97.9060 ha         1 1KD       0.122000
     51 H16        129.0070   140.8920    95.8800 h1         1 1KD       0.029700
     52 H17        130.1530   140.8260    94.5230 h1         1 1KD       0.029700
     53 H18        132.4400   140.1890    94.9280 ha         1 1KD       0.122000
     54 H19        124.2740   137.2240    90.4250 h1         1 1KD       0.060950
     55 H20        123.5360   138.0780    91.7900 h1         1 1KD       0.060950
     56 H21        122.1500   136.1090    91.2070 hc         1 1KD       0.060200
     57 H22        122.8140   135.9900    92.8180 hc         1 1KD       0.060200
     58 H23        128.0480   137.4160    93.0230 h1         1 1KD       0.106700
     59 H24        127.7930   135.3280    98.7630 hc         1 1KD       0.046867
     60 H25        129.0460   135.1170    97.5270 hc         1 1KD       0.046867
     61 H26        128.4770   136.7450    97.9360 hc         1 1KD       0.046867
     62 H27        123.7550   135.6260    88.7180 ha         1 1KD       0.121000
     63 H28        122.7900   134.4960    86.7150 ha         1 1KD       0.120000
     64 H29        121.6570   132.2840    86.9440 ha         1 1KD       0.119000
     65 H30        121.4750   131.2020    89.1810 ha         1 1KD       0.139000
     66 H31        123.5160   128.8550    91.6230 h1         1 1KD       0.103700
     67 H32        123.4610   129.9740    90.2060 h1         1 1KD       0.103700
     68 H33        124.5560   130.3330    91.5970 h1         1 1KD       0.103700
     69 H34        126.0840   137.4340    95.3160 hn         1 1KD       0.311500
     70 H35        125.4320   135.7870    97.9630 hn         1 1KD       0.398000
     71 H36        126.1750   137.1890    97.6970 hn         1 1KD       0.398000
     72 C05        127.6560   136.1620    95.3430 c          1 1KD       0.625100
     73 H12        133.6050   138.6520    98.7890 ha         1 1KD       0.111000
@<TRIPOS>BOND
     1     1    21 ar  
     2     1    25 ar  
     3     1    30 1   
     4     2    13 1   
     5     2    30 1   
     6     2    37 1   
     7     2    38 1   
     8     3     4 1   
     9     3    29 1   
    10     3    39 1   
    11     3    40 1   
    12     4    13 1   
    13     4    41 1   
    14     4    42 1   
    15     5    18 1   
    16     5    33 1   
    17     5    43 1   
    18     5    44 1   
    19     6    19 1   
    20     6    45 1   
    21     6    46 1   
    22     6    47 1   
    23     7     8 ar  
    24     7     9 ar  
    25     7    73 1   
    26     8    14 ar  
    27     8    48 1   
    28     9    10 ar  
    29     9    49 1   
    30    10    11 ar  
    31    10    50 1   
    32    11    12 1   
    33    11    14 ar  
    34    12    33 1   
    35    12    51 1   
    36    12    52 1   
    37    13    16 1   
    38    13    21 1   
    39    14    53 1   
    40    15    16 1   
    41    15    29 1   
    42    15    54 1   
    43    15    55 1   
    44    16    56 1   
    45    16    57 1   
    46    17    18 1   
    47    17    29 1   
    48    17    31 2   
    49    18    27 1   
    50    18    58 1   
    51    19    20 1   
    52    19    28 1   
    53    19    72 1   
    54    20    59 1   
    55    20    60 1   
    56    20    61 1   
    57    21    22 ar  
    58    22    23 ar  
    59    22    62 1   
    60    23    24 ar  
    61    23    63 1   
    62    24    25 ar  
    63    24    64 1   
    64    25    65 1   
    65    26    36 1   
    66    26    66 1   
    67    26    67 1   
    68    26    68 1   
    69    27    69 1   
    70    27    72 1   
    71    28    70 1   
    72    28    71 1   
    73    30    36 1   
    74    32    72 2   
    75    34    36 2   
    76    35    36 2   
@<TRIPOS>SUBSTRUCTURE
     1 1KD         1 TEMP              0 ****  ****    0 ROOT
