@<TRIPOS>MOLECULE
1KD
   73    76     1     0     0
SMALL
bcc


@<TRIPOS>ATOM
      1 C28        122.5910   133.1650    89.8540 ca         1 1KD       0.129600
      2 C26        123.2180   132.8180    92.0740 c5         1 1KD       0.215800
      3 C25        125.7070   135.1420    93.0910 c6         1 1KD       0.101500
      4 C24        125.4190   134.1500    91.9750 c6         1 1KD      -0.080900
      5 C11        127.9180   138.8950    93.8790 c3         1 1KD       0.129400
      6 C10        128.0550   134.7360    97.8140 c3         1 1KD      -0.100600
      7 C17        133.0980   139.3400    97.5470 ca         1 1KD      -0.128000
      8 C18        132.7860   140.6040    97.0590 ca         1 1KD      -0.130500
      9 C16        132.3120   138.2570    97.1820 ca         1 1KD      -0.130500
     10 C15        131.2210   138.4280    96.3360 ca         1 1KD      -0.117000
     11 C14        130.9040   139.6900    95.8470 ca         1 1KD      -0.087300
     12 C13        129.7300   139.9370    94.9390 c3         1 1KD       0.187700
     13 C23        123.9310   134.0890    91.5840 c5         1 1KD       0.000300
     14 C19        131.6980   140.7740    96.2170 ca         1 1KD      -0.117000
     15 C21        124.0280   136.5960    91.9700 c6         1 1KD       0.101500
     16 C22        123.2090   135.3340    92.1390 c6         1 1KD      -0.080900
     17 C02        125.9820   137.6140    92.9240 c          1 1KD       0.654100
     18 C03        127.2420   137.5310    93.7910 c3         1 1KD       0.029700
     19 C07        127.1780   135.8240    97.2060 c3         1 1KD       0.099200
     20 C09        127.3150   137.1030    98.0450 c3         1 1KD      -0.100600
     21 C29        123.6900   133.9890    90.0950 ca         1 1KD      -0.115300
     22 C30        124.3280   134.6150    89.0440 ca         1 1KD      -0.088000
     23 C31        123.8650   134.4110    87.7450 ca         1 1KD      -0.145000
     24 C32        122.7670   133.5960    87.5200 ca         1 1KD      -0.099000
     25 C33        122.1080   132.9610    88.5720 ca         1 1KD      -0.156000
     26 C37        121.9560   129.9680    90.5150 c3         1 1KD      -0.269300
     27 N04        126.9130   137.0370    95.1080 ns         1 1KD      -0.564900
     28 N08        125.8080   135.3100    97.1350 n8         1 1KD      -0.882800
     29 N20        125.2930   136.4820    92.6940 n          1 1KD      -0.468800
     30 N27        122.1380   132.6450    91.0850 nh         1 1KD      -0.611900
     31 O01        125.6130   138.6940    92.4790 o          1 1KD      -0.612100
     32 O06        128.5610   135.5070    95.2400 o          1 1KD      -0.592100
     33 O12        129.0750   138.7350    94.6550 os         1 1KD      -0.410600
     34 O35        119.9400   131.6540    90.3840 o          1 1KD      -0.597800
     35 O36        120.9170   131.1320    92.6320 o          1 1KD      -0.597800
     36 S34        121.0990   131.3620    91.2100 s6         1 1KD       1.247900
     37 H1         122.8150   132.9200    93.0790 h1         1 1KD       0.065200
     38 H2         123.9000   131.9600    92.0490 h1         1 1KD       0.065200
     39 H3         125.2140   134.8440    94.0210 h1         1 1KD       0.060950
     40 H4         126.7770   135.1230    93.2830 h1         1 1KD       0.060950
     41 H5         125.7780   133.1650    92.2800 hc         1 1KD       0.060200
     42 H6         126.0200   134.4390    91.1100 hc         1 1KD       0.060200
     43 H7         128.1650   139.2600    92.8740 h1         1 1KD       0.043200
     44 H8         127.2390   139.6270    94.3360 h1         1 1KD       0.043200
     45 H9         127.7230   134.5350    98.8340 hc         1 1KD       0.046867
     46 H10        127.9940   133.8070    97.2500 hc         1 1KD       0.046867
     47 H11        129.0980   135.0440    97.8620 hc         1 1KD       0.046867
     48 H13        133.3910   141.4580    97.3370 ha         1 1KD       0.129500
     49 H14        132.5460   137.2680    97.5560 ha         1 1KD       0.129500
     50 H15        130.6250   137.5680    96.0620 ha         1 1KD       0.140000
     51 H16        129.0450   140.6500    95.4210 h1         1 1KD       0.029700
     52 H17        130.0770   140.4240    94.0160 h1         1 1KD       0.029700
     53 H18        131.4630   141.7640    95.8420 ha         1 1KD       0.140000
     54 H19        124.2120   136.7970    90.9090 h1         1 1KD       0.060950
     55 H20        123.4670   137.4460    92.3580 h1         1 1KD       0.060950
     56 H21        122.2440   135.4720    91.6480 hc         1 1KD       0.060200
     57 H22        122.9970   135.1850    93.2020 hc         1 1KD       0.060200
     58 H23        127.9460   136.8300    93.3370 h1         1 1KD       0.106700
     59 H24        127.0650   136.8870    99.0850 hc         1 1KD       0.046867
     60 H25        128.3350   137.4920    98.0220 hc         1 1KD       0.046867
     61 H26        126.6470   137.8990    97.7110 hc         1 1KD       0.046867
     62 H27        125.1870   135.2520    89.2180 ha         1 1KD       0.139000
     63 H28        124.3650   134.8890    86.9120 ha         1 1KD       0.138000
     64 H29        122.4110   133.4380    86.5110 ha         1 1KD       0.137000
     65 H30        121.2540   132.3330    88.3680 ha         1 1KD       0.157000
     66 H31        121.2980   129.1030    90.5920 h1         1 1KD       0.103700
     67 H32        122.1910   130.1580    89.4700 h1         1 1KD       0.103700
     68 H33        122.8690   129.7880    91.0800 h1         1 1KD       0.103700
     69 H34        126.2140   137.5620    95.6120 hn         1 1KD       0.311500
     70 H35        125.5440   134.9660    98.0520 hn         1 1KD       0.342800
     71 H36        125.1490   136.0520    96.9290 hn         1 1KD       0.342800
     72 C05        127.6340   136.1020    95.7640 c          1 1KD       0.692100
     73 H12        133.9450   139.2030    98.2070 ha         1 1KD       0.129000
@<TRIPOS>BOND
     1     1    21 ar  
     2     1    25 ar  
     3     1    30 1   
     4     2    13 1   
     5     2    30 1   
     6     2    37 1   
     7     2    38 1   
     8     3     4 1   
     9     3    29 1   
    10     3    39 1   
    11     3    40 1   
    12     4    13 1   
    13     4    41 1   
    14     4    42 1   
    15     5    18 1   
    16     5    33 1   
    17     5    43 1   
    18     5    44 1   
    19     6    19 1   
    20     6    45 1   
    21     6    46 1   
    22     6    47 1   
    23     7     8 ar  
    24     7     9 ar  
    25     7    73 1   
    26     8    14 ar  
    27     8    48 1   
    28     9    10 ar  
    29     9    49 1   
    30    10    11 ar  
    31    10    50 1   
    32    11    12 1   
    33    11    14 ar  
    34    12    33 1   
    35    12    51 1   
    36    12    52 1   
    37    13    16 1   
    38    13    21 1   
    39    14    53 1   
    40    15    16 1   
    41    15    29 1   
    42    15    54 1   
    43    15    55 1   
    44    16    56 1   
    45    16    57 1   
    46    17    18 1   
    47    17    29 1   
    48    17    31 2   
    49    18    27 1   
    50    18    58 1   
    51    19    20 1   
    52    19    28 1   
    53    19    72 1   
    54    20    59 1   
    55    20    60 1   
    56    20    61 1   
    57    21    22 ar  
    58    22    23 ar  
    59    22    62 1   
    60    23    24 ar  
    61    23    63 1   
    62    24    25 ar  
    63    24    64 1   
    64    25    65 1   
    65    26    36 1   
    66    26    66 1   
    67    26    67 1   
    68    26    68 1   
    69    27    69 1   
    70    27    72 1   
    71    28    70 1   
    72    28    71 1   
    73    30    36 1   
    74    32    72 2   
    75    34    36 2   
    76    35    36 2   
@<TRIPOS>SUBSTRUCTURE
     1 1KD         1 TEMP              0 ****  ****    0 ROOT
