@<TRIPOS>MOLECULE
1KE
   25    26     1     0     0
SMALL
No Charge or Current Charge


@<TRIPOS>ATOM
      1 Cl1         33.1470    17.4950   -37.4720 cl         1 1KE      -0.176000
      2 C9          32.7630    17.4900   -39.2010 ca         1 1KE       0.032000
      3 C10         32.7840    18.7080   -39.9010 ca         1 1KE      -0.020000
      4 C11         32.5140    18.6940   -41.2780 ca         1 1KE       0.101000
      5 I1          32.5350    20.5500   -42.4110 i          1 1KE      -0.285000
      6 C12         32.2370    17.4600   -41.9020 ca         1 1KE       0.410900
      7 N13         32.2140    16.2750   -41.2410 nb         1 1KE      -0.736000
      8 C8          32.4670    16.2950   -39.9150 ca         1 1KE       0.613900
      9 N3          32.4150    15.0280   -39.3010 nh         1 1KE      -0.750300
     10 C2          31.3220    14.7310   -38.3230 c6         1 1KE       0.164300
     11 C1          31.6940    13.5530   -37.3650 c6         1 1KE       0.142300
     12 C4          32.9040    13.8090   -40.0210 c6         1 1KE       0.164300
     13 C5          33.2460    12.6410   -39.0390 c6         1 1KE       0.142300
     14 N1          32.1260    12.3280   -38.1020 n7         1 1KE      -0.839400
     15 H1          33.0110    19.6400   -39.3910 ha         1 1KE       0.144000
     16 H2          32.0280    17.4200   -42.9700 h4         1 1KE       0.034100
     17 H3          31.0880    15.6150   -37.7140 h1         1 1KE       0.050700
     18 H4          30.4040    14.4670   -38.8680 h1         1 1KE       0.050700
     19 H5          32.5070    13.8840   -36.7020 h1         1 1KE       0.063450
     20 H6          30.8300    13.3180   -36.7260 h1         1 1KE       0.063450
     21 H7          32.1390    13.4630   -40.7320 h1         1 1KE       0.050700
     22 H8          33.8070    14.0460   -40.6020 h1         1 1KE       0.050700
     23 H9          33.5090    11.7440   -39.6190 h1         1 1KE       0.063450
     24 H10         34.1360    12.9240   -38.4570 h1         1 1KE       0.063450
     25 H11         31.3290    11.9970   -38.6610 hn         1 1KE       0.401000
@<TRIPOS>BOND
     1     1     2 1   
     2     2     3 ar  
     3     2     8 ar  
     4     3     4 ar  
     5     3    15 1   
     6     4     5 1   
     7     4     6 ar  
     8     6     7 ar  
     9     6    16 1   
    10     7     8 ar  
    11     8     9 1   
    12     9    10 1   
    13     9    12 1   
    14    10    11 1   
    15    10    17 1   
    16    10    18 1   
    17    11    14 1   
    18    11    19 1   
    19    11    20 1   
    20    12    13 1   
    21    12    21 1   
    22    12    22 1   
    23    13    14 1   
    24    13    23 1   
    25    13    24 1   
    26    14    25 1   
@<TRIPOS>SUBSTRUCTURE
     1 1KE         1 TEMP              0 ****  ****    0 ROOT
