@<TRIPOS>MOLECULE
1KE
   25    26     1     0     0
SMALL
abcg2


@<TRIPOS>ATOM
      1 CL1         32.9360    17.4590   -37.4860 cl         1 1KE      -0.176000
      2 C9          32.6360    17.4480   -39.1880 ca         1 1KE       0.032000
      3 C10         32.6400    18.6490   -39.8630 ca         1 1KE      -0.020000
      4 C11         32.5350    18.6300   -41.2480 ca         1 1KE       0.101000
      5 I1          32.5390    20.4110   -42.3480 i          1 1KE      -0.285000
      6 C12         32.4550    17.4070   -41.8880 ca         1 1KE       0.410900
      7 N13         32.4160    16.2640   -41.2220 nb         1 1KE      -0.736000
      8 C8          32.4800    16.2390   -39.8970 ca         1 1KE       0.613900
      9 N3          32.4590    15.0200   -39.2570 nh         1 1KE      -0.750300
     10 C2          31.3820    14.7480   -38.3040 c6         1 1KE       0.164300
     11 C1          31.7970    13.6130   -37.3800 c6         1 1KE       0.142300
     12 C4          32.7730    13.8410   -40.0510 c6         1 1KE       0.164300
     13 C5          33.1710    12.7060   -39.1140 c6         1 1KE       0.142300
     14 N1          32.1830    12.4060   -38.0910 n7         1 1KE      -0.839400
     15 H1          32.7590    19.5760   -39.3170 ha         1 1KE       0.144000
     16 H2          32.4120    17.3400   -42.9690 h4         1 1KE       0.034100
     17 H3          31.1420    15.6350   -37.7220 h1         1 1KE       0.050700
     18 H4          30.4710    14.4640   -38.8500 h1         1 1KE       0.050700
     19 H5          32.6430    13.9470   -36.7720 h1         1 1KE       0.063450
     20 H6          30.9780    13.3820   -36.6970 h1         1 1KE       0.063450
     21 H7          31.9170    13.5340   -40.6690 h1         1 1KE       0.050700
     22 H8          33.5970    14.0650   -40.7270 h1         1 1KE       0.050700
     23 H9          33.3620    11.8060   -39.7020 h1         1 1KE       0.063450
     24 H10         34.1100    12.9730   -38.6190 h1         1 1KE       0.063450
     25 H11         31.3610    12.0130   -38.5360 hn         1 1KE       0.401000
@<TRIPOS>BOND
     1     1     2 1   
     2     2     3 ar  
     3     2     8 ar  
     4     3     4 ar  
     5     3    15 1   
     6     4     5 1   
     7     4     6 ar  
     8     6     7 ar  
     9     6    16 1   
    10     7     8 ar  
    11     8     9 1   
    12     9    10 1   
    13     9    12 1   
    14    10    11 1   
    15    10    17 1   
    16    10    18 1   
    17    11    14 1   
    18    11    19 1   
    19    11    20 1   
    20    12    13 1   
    21    12    21 1   
    22    12    22 1   
    23    13    14 1   
    24    13    23 1   
    25    13    24 1   
    26    14    25 1   
@<TRIPOS>SUBSTRUCTURE
     1 1KE         1 TEMP              0 ****  ****    0 ROOT
