@<TRIPOS>MOLECULE
1KG
   82    86     1     0     0
SMALL
No Charge or Current Charge


@<TRIPOS>ATOM
      1 C1          -1.2900     3.8960    -0.4050 c3         1 1KG      -0.081100
      2 C2          -1.0850     2.3700    -0.2810 c5         1 1KG      -0.088700
      3 C3           0.1850     1.9590     0.5490 c5         1 1KG      -0.089700
      4 C4           1.2140     1.1100    -0.2930 c5         1 1KG      -0.032000
      5 C5           0.6250     0.0690    -1.3170 c3         1 1KG      -0.080100
      6 C6           2.3280     1.9420    -1.0340 c6         1 1KG      -0.063400
      7 C7           3.6090     1.1020    -1.4300 c6         1 1KG      -0.070400
      8 C8           4.2430     0.3420    -0.2010 c6         1 1KG      -0.046700
      9 C9           5.5040    -0.5370    -0.5940 c6         1 1KG       0.002200
     10 C10          5.1660    -1.5680    -1.7270 c3         1 1KG      -0.080100
     11 C11          6.6670     0.4090    -1.0540 c6         1 1KG      -0.067400
     12 C12          8.0390    -0.2970    -1.1760 c6         1 1KG      -0.072400
     13 C13          8.4300    -0.9710     0.1560 c6         1 1KG       0.172300
     14 O1           9.7000    -1.6170     0.0220 oh         1 1KG      -0.660000
     15 C14          7.3510    -1.9960     0.5750 c6         1 1KG      -0.074200
     16 C15          5.9530    -1.3750     0.6600 c2         1 1KG      -0.107400
     17 C16          5.1910    -1.5930     1.7660 c2         1 1KG      -0.216200
     18 C17          3.7920    -1.0330     1.9390 c6         1 1KG      -0.038200
     19 C18          3.1790    -0.4840     0.6190 c6         1 1KG      -0.041700
     20 C19          1.9270     0.4280     0.9370 c5         1 1KG      -0.064700
     21 C20          0.7080    -0.2080     1.6770 c5         1 1KG      -0.070400
     22 C21         -0.3500     0.9480     1.6090 c5         1 1KG       0.155300
     23 O2          -1.5820     0.4720     1.0460 os         1 1KG      -0.445000
     24 C22         -2.2270     1.6370     0.4990 c5         1 1KG       0.163300
     25 C23         -3.4530     1.2350    -0.3530 c3         1 1KG      -0.065400
     26 C24         -4.5680     0.5150     0.4470 c3         1 1KG      -0.072400
     27 C25         -5.8700     0.2280    -0.3540 c3         1 1KG      -0.064700
     28 C26         -5.6280    -0.7140    -1.5640 c3         1 1KG      -0.084100
     29 C27         -6.9720    -0.3230     0.5870 c3         1 1KG       0.167600
     30 O3          -8.2100    -0.3780    -0.1440 os         1 1KG      -0.455100
     31 C28         -9.3190    -0.8560     0.5020 c          1 1KG       0.592100
     32 O4          -9.3280    -1.2620     1.6570 o          1 1KG      -0.489000
     33 C29        -10.5430    -0.8820    -0.4150 c3         1 1KG      -0.137400
     34 C30        -10.6920    -2.2500    -1.1180 c3         1 1KG      -0.081100
     35 H1          -0.4470     4.3620    -0.9290 hc         1 1KG       0.035033
     36 H2          -2.2020     4.1280    -0.9680 hc         1 1KG       0.035033
     37 H3          -1.3740     4.3680     0.5810 hc         1 1KG       0.035033
     38 H4          -1.0430     2.0100    -1.3110 hc         1 1KG       0.064700
     39 H5           0.6600     2.8180     1.0400 hc         1 1KG       0.055700
     40 H6           0.3340     0.5510    -2.2570 hc         1 1KG       0.036367
     41 H7           1.3550    -0.7020    -1.5860 hc         1 1KG       0.036367
     42 H8          -0.2580    -0.4550    -0.9410 hc         1 1KG       0.036367
     43 H9           1.9040     2.4160    -1.9300 hc         1 1KG       0.039700
     44 H10          2.6470     2.7710    -0.3870 hc         1 1KG       0.039700
     45 H11          3.3260     0.3940    -2.2160 hc         1 1KG       0.041200
     46 H12          4.3440     1.7800    -1.8790 hc         1 1KG       0.041200
     47 H13          4.6010     1.1240     0.4840 hc         1 1KG       0.045700
     48 H14          4.9380    -1.0740    -2.6780 hc         1 1KG       0.035033
     49 H15          6.0020    -2.2450    -1.9310 hc         1 1KG       0.035033
     50 H16          4.3110    -2.2000    -1.4650 hc         1 1KG       0.035033
     51 H17          6.4260     0.8720    -2.0200 hc         1 1KG       0.042200
     52 H18          6.7720     1.2380    -0.3400 hc         1 1KG       0.042200
     53 H19          8.0200    -1.0370    -1.9870 hc         1 1KG       0.053200
     54 H20          8.8040     0.4420    -1.4520 hc         1 1KG       0.053200
     55 H21          8.4900    -0.1940     0.9330 h1         1 1KG       0.030700
     56 H22          9.9290    -1.9720     0.9090 ho         1 1KG       0.441000
     57 H23          7.3370    -2.8280    -0.1420 hc         1 1KG       0.050200
     58 H24          7.6290    -2.4410     1.5400 hc         1 1KG       0.050200
     59 H25          5.5660    -2.1960     2.5950 ha         1 1KG       0.169000
     60 H26          3.1370    -1.8150     2.3470 hc         1 1KG       0.047700
     61 H27          3.8340    -0.2400     2.6980 hc         1 1KG       0.047700
     62 H28          2.8440    -1.3400     0.0210 hc         1 1KG       0.057700
     63 H29          2.3520     1.2090     1.5840 hc         1 1KG       0.041700
     64 H30          0.3590    -1.1270     1.1940 hc         1 1KG       0.056700
     65 H31          0.9500    -0.4660     2.7130 hc         1 1KG       0.056700
     66 H32         -0.5410     1.4250     2.5800 h1         1 1KG       0.039700
     67 H33         -2.5730     2.2570     1.3380 h1         1 1KG       0.033700
     68 H34         -3.8780     2.1340    -0.8160 hc         1 1KG       0.047200
     69 H35         -3.1170     0.5910    -1.1730 hc         1 1KG       0.047200
     70 H36         -4.1740    -0.4280     0.8450 hc         1 1KG       0.048700
     71 H37         -4.8200     1.1370     1.3150 hc         1 1KG       0.048700
     72 H38         -6.2320     1.1870    -0.7460 hc         1 1KG       0.054700
     73 H39         -6.5640    -0.9210    -2.0960 hc         1 1KG       0.036700
     74 H40         -4.9390    -0.2630    -2.2870 hc         1 1KG       0.036700
     75 H41         -5.2050    -1.6710    -1.2340 hc         1 1KG       0.036700
     76 H42         -6.6830    -1.3200     0.9460 h1         1 1KG       0.049200
     77 H43         -7.0750     0.3380     1.4580 h1         1 1KG       0.049200
     78 H44        -11.4450    -0.6860     0.1760 hc         1 1KG       0.068700
     79 H45        -10.4230    -0.1250    -1.2000 hc         1 1KG       0.068700
     80 H46        -11.5680    -2.2490    -1.7780 hc         1 1KG       0.044033
     81 H47         -9.8060    -2.4720    -1.7250 hc         1 1KG       0.044033
     82 H48        -10.8170    -3.0530    -0.3810 hc         1 1KG       0.044033
@<TRIPOS>BOND
     1     1     2 1   
     2     1    35 1   
     3     1    36 1   
     4     1    37 1   
     5     2     3 1   
     6     2    24 1   
     7     2    38 1   
     8     3     4 1   
     9     3    22 1   
    10     3    39 1   
    11     4     5 1   
    12     4     6 1   
    13     4    20 1   
    14     5    40 1   
    15     5    41 1   
    16     5    42 1   
    17     6     7 1   
    18     6    43 1   
    19     6    44 1   
    20     7     8 1   
    21     7    45 1   
    22     7    46 1   
    23     8     9 1   
    24     8    19 1   
    25     8    47 1   
    26     9    10 1   
    27     9    11 1   
    28     9    16 1   
    29    10    48 1   
    30    10    49 1   
    31    10    50 1   
    32    11    12 1   
    33    11    51 1   
    34    11    52 1   
    35    12    13 1   
    36    12    53 1   
    37    12    54 1   
    38    13    14 1   
    39    13    15 1   
    40    13    55 1   
    41    14    56 1   
    42    15    16 1   
    43    15    57 1   
    44    15    58 1   
    45    16    17 2   
    46    17    18 1   
    47    17    59 1   
    48    18    19 1   
    49    18    60 1   
    50    18    61 1   
    51    19    20 1   
    52    19    62 1   
    53    20    21 1   
    54    20    63 1   
    55    21    22 1   
    56    21    64 1   
    57    21    65 1   
    58    22    23 1   
    59    22    66 1   
    60    23    24 1   
    61    24    25 1   
    62    24    67 1   
    63    25    26 1   
    64    25    68 1   
    65    25    69 1   
    66    26    27 1   
    67    26    70 1   
    68    26    71 1   
    69    27    28 1   
    70    27    29 1   
    71    27    72 1   
    72    28    73 1   
    73    28    74 1   
    74    28    75 1   
    75    29    30 1   
    76    29    76 1   
    77    29    77 1   
    78    30    31 1   
    79    31    32 2   
    80    31    33 1   
    81    33    34 1   
    82    33    78 1   
    83    33    79 1   
    84    34    80 1   
    85    34    81 1   
    86    34    82 1   
@<TRIPOS>SUBSTRUCTURE
     1 1KG         1 TEMP              0 ****  ****    0 ROOT
