@<TRIPOS>MOLECULE
1KG
   82    86     1     0     0
SMALL
abcg2


@<TRIPOS>ATOM
      1 C1          -1.3000     3.6050    -0.8460 c3         1 1KG      -0.081100
      2 C2          -1.0930     2.1170    -0.6190 c5         1 1KG      -0.088700
      3 C3           0.1430     1.7720     0.2240 c5         1 1KG      -0.089700
      4 C4           1.3840     1.1190    -0.4270 c5         1 1KG      -0.032000
      5 C5           1.0130     0.2380    -1.6230 c3         1 1KG      -0.080100
      6 C6           2.4880     2.0980    -0.8150 c6         1 1KG      -0.063400
      7 C7           3.7930     1.3680    -1.1370 c6         1 1KG      -0.070400
      8 C8           4.2660     0.4120    -0.0300 c6         1 1KG      -0.046700
      9 C9           5.5530    -0.3640    -0.4180 c6         1 1KG       0.002200
     10 C10          5.4000    -1.0630    -1.7800 c3         1 1KG      -0.080100
     11 C11          6.7310     0.6320    -0.4750 c6         1 1KG      -0.067400
     12 C12          8.1010    -0.0210    -0.6190 c6         1 1KG      -0.072400
     13 C13          8.3510    -0.9810     0.5280 c6         1 1KG       0.172300
     14 O1           9.6300    -1.5580     0.3610 oh         1 1KG      -0.660000
     15 C14          7.2470    -2.0350     0.5610 c6         1 1KG      -0.074200
     16 C15          5.8770    -1.4140     0.6320 c2         1 1KG      -0.107400
     17 C16          5.0180    -1.7800     1.5810 c2         1 1KG      -0.216200
     18 C17          3.6230    -1.2640     1.7120 c6         1 1KG      -0.038200
     19 C18          3.1520    -0.5270     0.4640 c6         1 1KG      -0.041700
     20 C19          1.9040     0.2880     0.7580 c5         1 1KG      -0.064700
     21 C20          0.6570    -0.4060     1.2990 c5         1 1KG      -0.070400
     22 C21         -0.3780     0.7210     1.2380 c5         1 1KG       0.155300
     23 O2          -1.6410     0.3080     0.7600 os         1 1KG      -0.445000
     24 C22         -2.2310     1.4520     0.1710 c5         1 1KG       0.163300
     25 C23         -3.4380     1.0490    -0.6500 c3         1 1KG      -0.065400
     26 C24         -4.5230     0.3700     0.1790 c3         1 1KG      -0.072400
     27 C25         -5.8360     0.1390    -0.5740 c3         1 1KG      -0.064700
     28 C26         -5.6680    -0.8190    -1.7490 c3         1 1KG      -0.084100
     29 C27         -6.8600    -0.3730     0.4260 c3         1 1KG       0.167600
     30 O3          -8.1270    -0.4920    -0.2290 os         1 1KG      -0.455100
     31 C28         -9.1410    -1.0100     0.4540 c          1 1KG       0.592100
     32 O4          -9.0540    -1.3710     1.6010 o          1 1KG      -0.489000
     33 C29        -10.3910    -1.0830    -0.3830 c3         1 1KG      -0.137400
     34 C30        -11.5610    -1.7300     0.3350 c3         1 1KG      -0.081100
     35 H1          -0.4770     4.0330    -1.4200 hc         1 1KG       0.035033
     36 H2          -2.2200     3.8020    -1.4010 hc         1 1KG       0.035033
     37 H3          -1.3580     4.1470     0.1000 hc         1 1KG       0.035033
     38 H4          -1.0370     1.6250    -1.5930 hc         1 1KG       0.064700
     39 H5           0.4800     2.6650     0.7610 hc         1 1KG       0.055700
     40 H6           0.7160     0.8500    -2.4770 hc         1 1KG       0.036367
     41 H7           1.8510    -0.3740    -1.9540 hc         1 1KG       0.036367
     42 H8           0.1840    -0.4380    -1.4110 hc         1 1KG       0.036367
     43 H9           2.1930     2.7070    -1.6760 hc         1 1KG       0.039700
     44 H10          2.6480     2.7950     0.0160 hc         1 1KG       0.039700
     45 H11          3.6690     0.8240    -2.0750 hc         1 1KG       0.041200
     46 H12          4.5690     2.1130    -1.3270 hc         1 1KG       0.041200
     47 H13          4.5340     1.0340     0.8370 hc         1 1KG       0.045700
     48 H14          5.4170    -0.3480    -2.6040 hc         1 1KG       0.035033
     49 H15          6.2020    -1.7770    -1.9650 hc         1 1KG       0.035033
     50 H16          4.4630    -1.6200    -1.8330 hc         1 1KG       0.035033
     51 H17          6.5800     1.3300    -1.3020 hc         1 1KG       0.042200
     52 H18          6.7240     1.2340     0.4420 hc         1 1KG       0.042200
     53 H19          8.1690    -0.5630    -1.5680 hc         1 1KG       0.053200
     54 H20          8.8730     0.7520    -0.6380 hc         1 1KG       0.053200
     55 H21          8.3070    -0.4100     1.4690 h1         1 1KG       0.030700
     56 H22          9.7870    -2.1590     1.0960 ho         1 1KG       0.441000
     57 H23          7.3420    -2.6500    -0.3420 hc         1 1KG       0.050200
     58 H24          7.3900    -2.7080     1.4120 hc         1 1KG       0.050200
     59 H25          5.3350    -2.5140     2.3180 ha         1 1KG       0.169000
     60 H26          2.9490    -2.0950     1.9400 hc         1 1KG       0.047700
     61 H27          3.5620    -0.5950     2.5810 hc         1 1KG       0.047700
     62 H28          2.9370    -1.2730    -0.3090 hc         1 1KG       0.057700
     63 H29          2.2040     1.0180     1.5280 hc         1 1KG       0.041700
     64 H30          0.3570    -1.2450     0.6640 hc         1 1KG       0.056700
     65 H31          0.7870    -0.7960     2.3090 hc         1 1KG       0.056700
     66 H32         -0.4930     1.1800     2.2300 h1         1 1KG       0.039700
     67 H33         -2.5610     2.1440     0.9660 h1         1 1KG       0.033700
     68 H34         -3.8490     1.9550    -1.1080 hc         1 1KG       0.047200
     69 H35         -3.1100     0.4080    -1.4750 hc         1 1KG       0.047200
     70 H36         -4.1530    -0.5870     0.5610 hc         1 1KG       0.048700
     71 H37         -4.7280     0.9910     1.0580 hc         1 1KG       0.048700
     72 H38         -6.1830     1.1090    -0.9510 hc         1 1KG       0.054700
     73 H39         -6.6130    -0.9980    -2.2620 hc         1 1KG       0.036700
     74 H40         -4.9720    -0.4240    -2.4890 hc         1 1KG       0.036700
     75 H41         -5.2820    -1.7840    -1.4110 hc         1 1KG       0.036700
     76 H42         -6.5510    -1.3460     0.8200 h1         1 1KG       0.049200
     77 H43         -6.9470     0.3190     1.2680 h1         1 1KG       0.049200
     78 H44        -10.6460    -0.0670    -0.7000 hc         1 1KG       0.068700
     79 H45        -10.1520    -1.6230    -1.3040 hc         1 1KG       0.068700
     80 H46        -12.4300    -1.7570    -0.3210 hc         1 1KG       0.044033
     81 H47        -11.3360    -2.7550     0.6280 hc         1 1KG       0.044033
     82 H48        -11.8400    -1.1770     1.2310 hc         1 1KG       0.044033
@<TRIPOS>BOND
     1     1     2 1   
     2     1    35 1   
     3     1    36 1   
     4     1    37 1   
     5     2     3 1   
     6     2    24 1   
     7     2    38 1   
     8     3     4 1   
     9     3    22 1   
    10     3    39 1   
    11     4     5 1   
    12     4     6 1   
    13     4    20 1   
    14     5    40 1   
    15     5    41 1   
    16     5    42 1   
    17     6     7 1   
    18     6    43 1   
    19     6    44 1   
    20     7     8 1   
    21     7    45 1   
    22     7    46 1   
    23     8     9 1   
    24     8    19 1   
    25     8    47 1   
    26     9    10 1   
    27     9    11 1   
    28     9    16 1   
    29    10    48 1   
    30    10    49 1   
    31    10    50 1   
    32    11    12 1   
    33    11    51 1   
    34    11    52 1   
    35    12    13 1   
    36    12    53 1   
    37    12    54 1   
    38    13    14 1   
    39    13    15 1   
    40    13    55 1   
    41    14    56 1   
    42    15    16 1   
    43    15    57 1   
    44    15    58 1   
    45    16    17 2   
    46    17    18 1   
    47    17    59 1   
    48    18    19 1   
    49    18    60 1   
    50    18    61 1   
    51    19    20 1   
    52    19    62 1   
    53    20    21 1   
    54    20    63 1   
    55    21    22 1   
    56    21    64 1   
    57    21    65 1   
    58    22    23 1   
    59    22    66 1   
    60    23    24 1   
    61    24    25 1   
    62    24    67 1   
    63    25    26 1   
    64    25    68 1   
    65    25    69 1   
    66    26    27 1   
    67    26    70 1   
    68    26    71 1   
    69    27    28 1   
    70    27    29 1   
    71    27    72 1   
    72    28    73 1   
    73    28    74 1   
    74    28    75 1   
    75    29    30 1   
    76    29    76 1   
    77    29    77 1   
    78    30    31 1   
    79    31    32 2   
    80    31    33 1   
    81    33    34 1   
    82    33    78 1   
    83    33    79 1   
    84    34    80 1   
    85    34    81 1   
    86    34    82 1   
@<TRIPOS>SUBSTRUCTURE
     1 1KG         1 TEMP              0 ****  ****    0 ROOT
