@<TRIPOS>MOLECULE
1KI
   50    52     1     0     0
SMALL
abcg2


@<TRIPOS>ATOM
      1 C01        119.7300   135.4260   160.2150 c3         1 1KI      -0.043800
      2 C02        118.7090   136.3780   160.7740 ca         1 1KI      -0.083300
      3 C03        117.3230   136.2450   160.4590 ca         1 1KI       0.283000
      4 C05        117.0250   133.8370   160.2860 c3         1 1KI       0.187800
      5 C06        117.4900   132.7710   159.3080 c3         1 1KI       0.156600
      6 C16        117.4710   140.1720   163.1220 cc         1 1KI       0.453500
      7 C17        117.4160   141.3420   163.9690 ce         1 1KI      -0.266600
      8 C18        118.4880   141.8370   164.6140 cf         1 1KI      -0.095200
      9 C19        118.5120   142.9710   165.5230 ca         1 1KI      -0.103800
     10 C20        119.7210   143.2980   166.1510 ca         1 1KI      -0.023000
     11 N04        116.9010   135.1580   159.6610 nh         1 1KI      -0.790400
     12 O07        117.5360   131.5390   160.0150 os         1 1KI      -0.463000
     13 C08        117.9880   130.4600   159.2170 c3         1 1KI       0.131600
     14 C09        118.0690   129.2190   160.0580 c3         1 1KI       0.181600
     15 C11        115.6420   135.3180   158.9470 c3         1 1KI       0.175100
     16 C12        116.4130   137.2030   160.9080 ca         1 1KI      -0.124000
     17 C13        116.8660   138.2600   161.6880 ca         1 1KI      -0.157000
     18 C14        118.2240   138.3860   162.0420 ca         1 1KI       0.082400
     19 N15        118.5290   139.4660   162.8390 nd         1 1KI      -0.535100
     20 C21        119.7880   144.3440   167.0530 ca         1 1KI      -0.110900
     21 C23        118.6620   145.1090   167.3650 ca         1 1KI       0.176100
     22 O24        118.6620   146.1330   168.2450 oh         1 1KI      -0.524100
     23 C25        117.4570   144.7930   166.7280 ca         1 1KI      -0.149000
     24 C26        117.3830   143.7500   165.8290 ca         1 1KI      -0.043000
     25 S27        115.9720   139.5690   162.4000 ss         1 1KI       0.000800
     26 C28        119.1310   137.4350   161.5630 ca         1 1KI      -0.046000
     27 BR2        121.4530   144.7600   167.9020 br         1 1KI      -0.106100
     28 F10        119.1050   129.3400   161.0090 f          1 1KI      -0.269000
     29 H1         119.5120   135.1960   159.1710 hc         1 1KI       0.046367
     30 H2         120.7260   135.8630   160.2800 hc         1 1KI       0.046367
     31 H3         119.7530   134.4750   160.7520 hc         1 1KI       0.046367
     32 H4         116.0600   133.5370   160.7170 h1         1 1KI       0.054700
     33 H5         117.7330   133.8900   161.1090 h1         1 1KI       0.054700
     34 H6         118.4830   133.0220   158.9200 h1         1 1KI       0.031200
     35 H7         116.8040   132.6860   158.4560 h1         1 1KI       0.031200
     36 H8         116.4400   141.7980   164.0810 ha         1 1KI       0.183000
     37 H10        119.4400   141.3350   164.4720 ha         1 1KI       0.196000
     38 H12        120.6090   142.7200   165.9330 ha         1 1KI       0.133000
     39 H13        118.9720   130.6870   158.7870 h1         1 1KI       0.035200
     40 H14        117.2920   130.2720   158.3880 h1         1 1KI       0.035200
     41 H15        117.1440   129.0540   160.6120 h1         1 1KI       0.055200
     42 H16        118.2950   128.3520   159.4360 h1         1 1KI       0.055200
     43 H17        115.6320   136.2720   158.4200 h1         1 1KI       0.036367
     44 H18        115.5470   134.5210   158.2110 h1         1 1KI       0.036367
     45 H19        114.7650   135.2700   159.6090 h1         1 1KI       0.036367
     46 H20        115.3630   137.1170   160.6710 ha         1 1KI       0.124000
     47 H21        119.5500   146.2590   168.6170 ho         1 1KI       0.481000
     48 H22        116.5840   145.3890   166.9620 ha         1 1KI       0.135000
     49 H23        116.4310   143.5370   165.3610 ha         1 1KI       0.121000
     50 H24        120.1830   137.5470   161.7960 ha         1 1KI       0.131000
@<TRIPOS>BOND
     1     1     2 1   
     2     1    29 1   
     3     1    30 1   
     4     1    31 1   
     5     2     3 ar  
     6     2    26 ar  
     7     3    11 1   
     8     3    16 ar  
     9     4     5 1   
    10     4    11 1   
    11     4    32 1   
    12     4    33 1   
    13     5    12 1   
    14     5    34 1   
    15     5    35 1   
    16     6     7 1   
    17     6    19 2   
    18     6    25 1   
    19     7     8 2   
    20     7    36 1   
    21     8     9 1   
    22     8    37 1   
    23     9    10 ar  
    24     9    24 ar  
    25    10    20 ar  
    26    10    38 1   
    27    11    15 1   
    28    12    13 1   
    29    13    14 1   
    30    13    39 1   
    31    13    40 1   
    32    14    28 1   
    33    14    41 1   
    34    14    42 1   
    35    15    43 1   
    36    15    44 1   
    37    15    45 1   
    38    16    17 ar  
    39    16    46 1   
    40    17    18 ar  
    41    17    25 1   
    42    18    19 1   
    43    18    26 ar  
    44    20    21 ar  
    45    20    27 1   
    46    21    22 1   
    47    21    23 ar  
    48    22    47 1   
    49    23    24 ar  
    50    23    48 1   
    51    24    49 1   
    52    26    50 1   
@<TRIPOS>SUBSTRUCTURE
     1 1KI         1 TEMP              0 ****  ****    0 ROOT
