@<TRIPOS>MOLECULE
1KI
   50    52     1     0     0
SMALL
No Charge or Current Charge


@<TRIPOS>ATOM
      1 C01        119.7430   135.4660   160.1690 c3         1 1KI      -0.043800
      2 C02        118.6990   136.3930   160.7880 ca         1 1KI      -0.083300
      3 C03        117.3080   136.2150   160.5430 ca         1 1KI       0.283000
      4 C05        116.8580   133.7610   160.2640 c3         1 1KI       0.187800
      5 C06        117.4460   132.7070   159.2930 c3         1 1KI       0.156600
      6 C16        117.4020   140.0250   163.3390 cc         1 1KI       0.453500
      7 C17        117.3920   141.2030   164.2010 ce         1 1KI      -0.266600
      8 C18        118.4730   141.8310   164.7530 cf         1 1KI      -0.095200
      9 C19        118.5200   143.0210   165.6290 ca         1 1KI      -0.103800
     10 C20        119.7690   143.4950   166.0830 ca         1 1KI      -0.023000
     11 N04        116.8240   135.1530   159.7420 nh         1 1KI      -0.790400
     12 O07        117.4660   131.4310   159.9630 os         1 1KI      -0.463000
     13 C08        118.0020   130.3500   159.1730 c3         1 1KI       0.131600
     14 C09        117.9730   129.0510   160.0090 c3         1 1KI       0.181600
     15 C11        115.8790   135.4320   158.6380 c3         1 1KI       0.175100
     16 C12        116.3860   137.1150   161.1200 ca         1 1KI      -0.124000
     17 C13        116.8570   138.1620   161.9250 ca         1 1KI      -0.157000
     18 C14        118.2000   138.3400   162.1720 ca         1 1KI       0.082400
     19 N15        118.5420   139.4120   162.9870 nd         1 1KI      -0.535100
     20 C21        119.8470   144.6250   166.9170 ca         1 1KI      -0.110900
     21 C23        118.6720   145.2930   167.3070 ca         1 1KI       0.176100
     22 O24        118.7330   146.3890   168.1150 oh         1 1KI      -0.524100
     23 C25        117.4270   144.8300   166.8610 ca         1 1KI      -0.149000
     24 C26        117.3470   143.7000   166.0270 ca         1 1KI      -0.043000
     25 S27        115.8660   139.3670   162.7260 ss         1 1KI       0.000800
     26 C28        119.1350   137.4590   161.6070 ca         1 1KI      -0.046000
     27 Br2        121.5680   145.2330   167.5100 br         1 1KI      -0.106100
     28 F10        118.8090   129.1430   161.0770 f          1 1KI      -0.269000
     29 H1         119.5340   135.2810   159.1090 hc         1 1KI       0.046367
     30 H2         120.7510   135.8940   160.2280 hc         1 1KI       0.046367
     31 H3         119.7660   134.4990   160.6840 hc         1 1KI       0.046367
     32 H4         115.8410   133.4510   160.5370 h1         1 1KI       0.054700
     33 H5         117.4520   133.7330   161.1880 h1         1 1KI       0.054700
     34 H6         118.4620   133.0050   159.0020 h1         1 1KI       0.031200
     35 H7         116.8280   132.6570   158.3870 h1         1 1KI       0.031200
     36 H8         116.3930   141.5840   164.3950 ha         1 1KI       0.183000
     37 H10        119.4560   141.4090   164.5280 ha         1 1KI       0.196000
     38 H12        120.6850   142.9870   165.7890 ha         1 1KI       0.133000
     39 H13        119.0350   130.5630   158.8690 h1         1 1KI       0.035200
     40 H14        117.4020   130.2040   158.2660 h1         1 1KI       0.035200
     41 H15        116.9550   128.8560   160.3690 h1         1 1KI       0.055200
     42 H16        118.2950   128.2050   159.3880 h1         1 1KI       0.055200
     43 H17        115.9340   136.4880   158.3400 h1         1 1KI       0.036367
     44 H18        116.1240   134.8250   157.7570 h1         1 1KI       0.036367
     45 H19        114.8480   135.2110   158.9460 h1         1 1KI       0.036367
     46 H20        115.3200   136.9920   160.9500 ha         1 1KI       0.124000
     47 H21        119.6790   146.5560   168.3180 ho         1 1KI       0.481000
     48 H22        116.5190   145.3460   167.1620 ha         1 1KI       0.135000
     49 H23        116.3680   143.3640   165.6970 ha         1 1KI       0.121000
     50 H24        120.1940   137.6070   161.8030 ha         1 1KI       0.131000
@<TRIPOS>BOND
     1     1     2 1   
     2     1    29 1   
     3     1    30 1   
     4     1    31 1   
     5     2     3 ar  
     6     2    26 ar  
     7     3    11 1   
     8     3    16 ar  
     9     4     5 1   
    10     4    11 1   
    11     4    32 1   
    12     4    33 1   
    13     5    12 1   
    14     5    34 1   
    15     5    35 1   
    16     6     7 1   
    17     6    19 2   
    18     6    25 1   
    19     7     8 2   
    20     7    36 1   
    21     8     9 1   
    22     8    37 1   
    23     9    10 ar  
    24     9    24 ar  
    25    10    20 ar  
    26    10    38 1   
    27    11    15 1   
    28    12    13 1   
    29    13    14 1   
    30    13    39 1   
    31    13    40 1   
    32    14    28 1   
    33    14    41 1   
    34    14    42 1   
    35    15    43 1   
    36    15    44 1   
    37    15    45 1   
    38    16    17 ar  
    39    16    46 1   
    40    17    18 ar  
    41    17    25 1   
    42    18    19 1   
    43    18    26 ar  
    44    20    21 ar  
    45    20    27 1   
    46    21    22 1   
    47    21    23 ar  
    48    22    47 1   
    49    23    24 ar  
    50    23    48 1   
    51    24    49 1   
    52    26    50 1   
@<TRIPOS>SUBSTRUCTURE
     1 1KI         1 TEMP              0 ****  ****    0 ROOT
