@<TRIPOS>MOLECULE
1KJ
   29    28     1     0     0
SMALL
No Charge or Current Charge


@<TRIPOS>ATOM
      1 OA2         -4.5880    -0.5620    -1.9910 o          1 1KJ      -0.732500
      2 C           -4.2800    -0.4020    -0.8170 c          1 1KJ       0.692000
      3 OA1         -4.9300    -0.8660     0.1120 o          1 1KJ      -0.732500
      4 CA          -3.0740     0.5710    -0.4830 c3         1 1KJ       0.013500
      5 N           -3.3820     1.7070     0.4620 n8         1 1KJ      -1.003200
      6 CB          -1.8480    -0.2450     0.0100 c3         1 1KJ      -0.051400
      7 CG          -0.5170     0.5470     0.0410 c3         1 1KJ      -0.084400
      8 CD           0.6810    -0.3150     0.4840 c3         1 1KJ       0.196800
      9 NE           1.9190     0.4790     0.4770 nu         1 1KJ      -0.940400
     10 CZ           3.1530     0.0180     0.7540 c2         1 1KJ       0.751100
     11 NH2          3.3350    -1.0920     1.3170 n2         1 1KJ      -0.871100
     12 NH1          4.1240     0.9370     0.4930 nu         1 1KJ      -0.628900
     13 OH           5.4700     0.4490     0.3310 os         1 1KJ      -0.176300
     14 C1           5.7080    -0.0460    -1.0000 c3         1 1KJ       0.088900
     15 H2          -2.7860     1.0310    -1.4390 h1         1 1KJ       0.038700
     16 H3          -4.1590     2.2590     0.0780 hn         1 1KJ       0.383000
     17 H4          -3.7830     1.3100     1.3210 hn         1 1KJ       0.383000
     18 H6          -2.0560    -0.6520     1.0080 hc         1 1KJ       0.041700
     19 H7          -1.7170    -1.1090    -0.6550 hc         1 1KJ       0.041700
     20 H8          -0.3190     0.9530    -0.9590 hc         1 1KJ       0.045200
     21 H9          -0.6140     1.4000     0.7240 hc         1 1KJ       0.045200
     22 H10          0.4900    -0.7080     1.4930 h1         1 1KJ       0.037200
     23 H11          0.7820    -1.1690    -0.2010 h1         1 1KJ       0.037200
     24 H12          1.8230     1.4880     0.5250 hn         1 1KJ       0.471000
     25 H13          2.4030    -1.5000     1.4240 hn         1 1KJ       0.391400
     26 H15          3.8970     1.5690    -0.2690 hn         1 1KJ       0.449000
     27 H16          5.0330    -0.8780    -1.2370 h1         1 1KJ       0.039033
     28 H17          5.5620     0.7470    -1.7450 h1         1 1KJ       0.039033
     29 H18          6.7390    -0.4090    -1.0890 h1         1 1KJ       0.039033
@<TRIPOS>BOND
     1     1     2 1   
     2     2     3 1   
     3     2     4 1   
     4     4     5 1   
     5     4     6 1   
     6     4    15 1   
     7     5    16 1   
     8     5    17 1   
     9     6     7 1   
    10     6    18 1   
    11     6    19 1   
    12     7     8 1   
    13     7    20 1   
    14     7    21 1   
    15     8     9 1   
    16     8    22 1   
    17     8    23 1   
    18     9    10 1   
    19     9    24 1   
    20    10    11 2   
    21    10    12 1   
    22    11    25 1   
    23    12    13 1   
    24    12    26 1   
    25    13    14 1   
    26    14    27 1   
    27    14    28 1   
    28    14    29 1   
@<TRIPOS>SUBSTRUCTURE
     1 1KJ         1 TEMP              0 ****  ****    0 ROOT
