@<TRIPOS>MOLECULE
1KJ
   29    28     1     0     0
SMALL
abcg2


@<TRIPOS>ATOM
      1 OA2         -4.3240    -1.2120    -1.4170 o          1 1KJ      -0.732500
      2 C           -4.3460    -0.4010    -0.4670 c          1 1KJ       0.692000
      3 OA1         -5.2240    -0.3180     0.4140 o          1 1KJ      -0.732500
      4 CA          -3.1440     0.5740    -0.3830 c3         1 1KJ       0.013500
      5 N           -3.2930     1.6720     0.5590 n8         1 1KJ      -1.003200
      6 CB          -1.8760    -0.2220    -0.0670 c3         1 1KJ      -0.051400
      7 CG          -0.5950     0.5970    -0.1430 c3         1 1KJ      -0.084400
      8 CD           0.6210    -0.2390     0.2210 c3         1 1KJ       0.196800
      9 NE           1.8380     0.5360     0.0860 nu         1 1KJ      -0.940400
     10 CZ           3.0470    -0.0080     0.4370 c2         1 1KJ       0.751100
     11 NH2          3.3010    -1.2180     0.7470 n2         1 1KJ      -0.871100
     12 NH1          4.0490     0.9630     0.4460 nu         1 1KJ      -0.628900
     13 OH           5.3370     0.5130     0.5860 os         1 1KJ      -0.176300
     14 C1           5.8590    -0.0510    -0.6080 c3         1 1KJ       0.088900
     15 H2          -3.0140     1.0140    -1.3800 h1         1 1KJ       0.038700
     16 H3          -4.0970     2.2250     0.2860 hn         1 1KJ       0.383000
     17 H4          -3.5540     1.2820     1.4580 hn         1 1KJ       0.383000
     18 H6          -1.9700    -0.6620     0.9340 hc         1 1KJ       0.041700
     19 H7          -1.8120    -1.0600    -0.7650 hc         1 1KJ       0.041700
     20 H8          -0.4730     0.9970    -1.1540 hc         1 1KJ       0.045200
     21 H9          -0.6640     1.4540     0.5320 hc         1 1KJ       0.045200
     22 H10          0.5030    -0.6250     1.2420 h1         1 1KJ       0.037200
     23 H11          0.6780    -1.1070    -0.4420 h1         1 1KJ       0.037200
     24 H12          1.7350     1.5220     0.2780 hn         1 1KJ       0.471000
     25 H13          2.4540    -1.7700     0.7950 hn         1 1KJ       0.391400
     26 H15          3.9760     1.6520    -0.2970 hn         1 1KJ       0.449000
     27 H16          5.3000    -0.9330    -0.9230 h1         1 1KJ       0.039033
     28 H17          5.8740     0.6800    -1.4220 h1         1 1KJ       0.039033
     29 H18          6.8830    -0.3420    -0.3830 h1         1 1KJ       0.039033
@<TRIPOS>BOND
     1     1     2 1   
     2     2     3 1   
     3     2     4 1   
     4     4     5 1   
     5     4     6 1   
     6     4    15 1   
     7     5    16 1   
     8     5    17 1   
     9     6     7 1   
    10     6    18 1   
    11     6    19 1   
    12     7     8 1   
    13     7    20 1   
    14     7    21 1   
    15     8     9 1   
    16     8    22 1   
    17     8    23 1   
    18     9    10 1   
    19     9    24 1   
    20    10    11 2   
    21    10    12 1   
    22    11    25 1   
    23    12    13 1   
    24    12    26 1   
    25    13    14 1   
    26    14    27 1   
    27    14    28 1   
    28    14    29 1   
@<TRIPOS>SUBSTRUCTURE
     1 1KJ         1 TEMP              0 ****  ****    0 ROOT
