@<TRIPOS>MOLECULE
1KK
   36    37     1     0     0
SMALL
bcc


@<TRIPOS>ATOM
      1 C02         -9.2430   -49.8920   132.3790 ca         1 1KK       0.735200
      2 C03         -7.9290   -49.4470   132.6160 ca         1 1KK      -0.249200
      3 C04         -7.1840   -49.0990   131.4970 ca         1 1KK       0.462800
      4 C07         -4.5680   -46.7520   131.4620 c3         1 1KK      -0.126400
      5 C08         -3.2510   -46.3000   130.8440 c3         1 1KK       0.173400
      6 C10         -3.6650   -45.3220   128.7340 c3         1 1KK       0.055100
      7 C11         -4.1130   -45.7460   127.3400 c3         1 1KK      -0.229600
      8 C16         -2.5680   -44.2290   128.6670 c          1 1KK       0.894600
      9 C19         -6.0420   -48.8520   133.3340 cc         1 1KK       0.383700
     10 C22         -8.8410   -49.5800   130.1370 ca         1 1KK       0.670900
     11 N01        -10.0680   -50.2610   133.3620 nv         1 1KK      -0.997500
     12 N05         -5.9690   -48.7190   131.9790 na         1 1KK      -0.200000
     13 N20         -7.1940   -49.2850   133.7600 nd         1 1KK      -0.631100
     14 N21         -7.5970   -49.1500   130.2320 nb         1 1KK      -0.565000
     15 N23         -9.6700   -49.9450   131.1130 nb         1 1KK      -0.859000
     16 O09         -3.2280   -46.4590   129.4530 os         1 1KK      -0.371600
     17 O13         -6.1040   -46.5860   125.7380 o          1 1KK      -0.952500
     18 O14         -6.6500   -46.1790   128.2250 o          1 1KK      -0.952500
     19 O15         -5.2930   -48.2470   127.5100 o          1 1KK      -0.952500
     20 O17         -2.9690   -43.0960   128.3200 o          1 1KK      -0.892800
     21 O18         -1.3940   -44.5530   128.9310 o          1 1KK      -0.892800
     22 P12         -5.6750   -46.7890   127.2020 p5         1 1KK       1.159700
     23 H1          -5.0050   -48.4370   130.1740 h1         1 1KK       0.103200
     24 H2          -3.9510   -48.8220   131.5300 h1         1 1KK       0.103200
     25 H3          -4.5240   -46.5480   132.5360 hc         1 1KK       0.039200
     26 H4          -5.4020   -46.1700   131.0590 hc         1 1KK       0.039200
     27 H5          -2.4360   -46.9000   131.2640 h1         1 1KK       0.001700
     28 H6          -3.0540   -45.2620   131.1410 h1         1 1KK       0.001700
     29 H7          -4.5390   -44.8780   129.2320 h1         1 1KK       0.030700
     30 H8          -3.2790   -46.2360   126.8200 hc         1 1KK       0.018700
     31 H9          -4.3050   -44.8230   126.7860 hc         1 1KK       0.018700
     32 H10         -5.1970   -48.6140   133.9640 h5         1 1KK       0.044800
     33 H11         -9.2470   -49.6480   129.1330 h5         1 1KK       0.054100
     34 H12        -11.0000   -50.5720   133.1510 hn         1 1KK       0.423300
     35 H13         -9.7790   -50.2290   134.3230 hn         1 1KK       0.423300
     36 C06         -4.8220   -48.2360   131.2290 c3         1 1KK       0.033300
@<TRIPOS>BOND
     1     1     2 ar  
     2     1    11 1   
     3     1    15 ar  
     4     2     3 ar  
     5     2    13 1   
     6     3    12 1   
     7     3    14 ar  
     8     4     5 1   
     9     4    25 1   
    10     4    26 1   
    11     4    36 1   
    12     5    16 1   
    13     5    27 1   
    14     5    28 1   
    15     6     7 1   
    16     6     8 1   
    17     6    16 1   
    18     6    29 1   
    19     7    22 1   
    20     7    30 1   
    21     7    31 1   
    22     8    20 1   
    23     8    21 1   
    24     9    12 1   
    25     9    13 2   
    26     9    32 1   
    27    10    14 ar  
    28    10    15 ar  
    29    10    33 1   
    30    11    34 1   
    31    11    35 1   
    32    12    36 1   
    33    17    22 1   
    34    18    22 1   
    35    19    22 1   
    36    23    36 1   
    37    24    36 1   
@<TRIPOS>SUBSTRUCTURE
     1 1KK         1 TEMP              0 ****  ****    0 ROOT
