@<TRIPOS>MOLECULE
1KK
   36    37     1     0     0
SMALL
No Charge or Current Charge


@<TRIPOS>ATOM
      1 C02         -9.2260   -49.3560   132.4080 ca         1 1KK       0.406900
      2 C03         -7.8170   -49.4120   132.4710 ca         1 1KK      -0.118600
      3 C04         -7.1020   -48.6630   131.5630 ca         1 1KK       0.134500
      4 C07         -4.3980   -46.8430   131.5730 c3         1 1KK      -0.126400
      5 C08         -3.1230   -46.2290   130.9490 c3         1 1KK       0.196600
      6 C10         -4.1430   -45.6160   128.7720 c3         1 1KK       0.078300
      7 C11         -4.0040   -46.0480   127.2840 c3         1 1KK      -0.387400
      8 C16         -4.0180   -44.0420   128.9350 c          1 1KK       0.684000
      9 C19         -5.7450   -49.7960   132.9460 cc         1 1KK       0.383700
     10 C22         -9.0530   -47.8970   130.6510 ca         1 1KK       0.144900
     11 N01        -10.0300   -50.0490   133.2570 nv         1 1KK      -1.107900
     12 N05         -5.7920   -48.9110   131.8670 na         1 1KK      -0.229300
     13 N20         -6.9880   -50.1290   133.3490 nd         1 1KK      -0.631100
     14 N21         -7.6990   -47.8890   130.6330 nb         1 1KK      -0.039000
     15 N23         -9.8530   -48.5950   131.4980 nb         1 1KK      -0.333000
     16 O09         -3.1320   -46.3630   129.5090 os         1 1KK      -0.418000
     17 O13         -4.8050   -47.7220   125.3310 o          1 1KK      -0.952500
     18 O14         -6.2450   -47.5940   127.2930 o          1 1KK      -0.952500
     19 O15         -4.1010   -48.7800   127.4090 o          1 1KK      -0.952500
     20 O17         -5.0390   -43.3710   128.8450 o          1 1KK      -0.787500
     21 O18         -2.9370   -43.5340   129.2170 o          1 1KK      -0.787500
     22 P12         -4.8320   -47.6220   126.8190 p5         1 1KK       1.317500
     23 H1          -4.8800   -48.3310   130.0630 h1         1 1KK       0.103200
     24 H2          -3.7660   -48.9040   131.3120 h1         1 1KK       0.103200
     25 H3          -4.2860   -46.8140   132.6640 hc         1 1KK       0.039200
     26 H4          -5.2680   -46.2170   131.3400 hc         1 1KK       0.039200
     27 H5          -2.2510   -46.7560   131.3570 h1         1 1KK       0.001700
     28 H6          -3.0400   -45.1780   131.2540 h1         1 1KK       0.001700
     29 H7          -5.1490   -45.8890   129.1130 h1         1 1KK       0.030700
     30 H8          -2.9480   -46.0980   126.9960 hc         1 1KK       0.018700
     31 H9          -4.4650   -45.2810   126.6520 hc         1 1KK       0.018700
     32 H10         -4.8120   -50.1430   133.3750 h5         1 1KK       0.044800
     33 H11         -9.5510   -47.2770   129.9080 h5         1 1KK       0.054100
     34 H12        -10.9980   -49.7520   133.3500 hn         1 1KK       0.478500
     35 H13         -9.5890   -50.4600   134.0770 hn         1 1KK       0.478500
     36 C06         -4.6670   -48.3000   131.1390 c3         1 1KK       0.062600
@<TRIPOS>BOND
     1     1     2 ar  
     2     1    11 1   
     3     1    15 ar  
     4     2     3 ar  
     5     2    13 1   
     6     3    12 1   
     7     3    14 ar  
     8     4     5 1   
     9     4    25 1   
    10     4    26 1   
    11     4    36 1   
    12     5    16 1   
    13     5    27 1   
    14     5    28 1   
    15     6     7 1   
    16     6     8 1   
    17     6    16 1   
    18     6    29 1   
    19     7    22 1   
    20     7    30 1   
    21     7    31 1   
    22     8    20 1   
    23     8    21 1   
    24     9    12 1   
    25     9    13 2   
    26     9    32 1   
    27    10    14 ar  
    28    10    15 ar  
    29    10    33 1   
    30    11    34 1   
    31    11    35 1   
    32    12    36 1   
    33    17    22 1   
    34    18    22 1   
    35    19    22 1   
    36    23    36 1   
    37    24    36 1   
@<TRIPOS>SUBSTRUCTURE
     1 1KK         1 TEMP              0 ****  ****    0 ROOT
