@<TRIPOS>MOLECULE
1KL
   55    57     1     0     0
SMALL
abcg2


@<TRIPOS>ATOM
      1 C1          -4.4600     1.1090     0.0940 ce         1 1KL      -0.166900
      2 C2          -3.2090     1.7180    -0.1750 cg         1 1KL       0.307700
      3 C4          -5.6190     2.0020     0.1660 c          1 1KL       0.622300
      4 O5          -6.7460     1.6180     0.3850 o          1 1KL      -0.503000
      5 O6          -5.2900     3.2640    -0.0330 os         1 1KL      -0.419100
      6 C7          -6.3370     4.2370     0.0060 c3         1 1KL       0.153900
      7 C8          -4.6440    -0.2380     0.2930 c2         1 1KL       0.241200
      8 C10         -4.0480    -2.5080     0.4910 c          1 1KL       0.579000
      9 C11         -5.5180    -2.5950     0.7610 c5         1 1KL      -0.128400
     10 C14         -2.2990    -0.9220    -0.0510 ca         1 1KL      -0.050000
     11 C15         -1.8850    -0.9190    -1.3730 ca         1 1KL      -0.095000
     12 C16         -0.5620    -0.6370    -1.6630 ca         1 1KL      -0.060500
     13 C17          0.3470    -0.3930    -0.6360 ca         1 1KL      -0.131600
     14 C18         -0.0870    -0.4150     0.6860 ca         1 1KL      -0.060500
     15 C19         -1.4130    -0.6830     0.9830 ca         1 1KL      -0.095000
     16 C20          1.7580    -0.0650    -1.0170 c          1 1KL       0.619700
     17 N3          -2.2370     2.2990    -0.3950 n1         1 1KL      -0.449000
     18 N9          -3.6670    -1.1910     0.2490 n          1 1KL      -0.158600
     19 S12         -6.2020    -0.9280     0.6440 ss         1 1KL      -0.084600
     20 O13         -3.2720    -3.4210     0.4750 o          1 1KL      -0.458000
     21 O21          2.0040     0.4830    -2.0780 o          1 1KL      -0.572100
     22 N22          2.6920    -0.4330    -0.1110 ns         1 1KL      -0.139000
     23 C23          4.0750    -0.2100    -0.1220 ca         1 1KL      -0.025000
     24 C24          4.7890    -0.6620     0.9910 ca         1 1KL      -0.147500
     25 C25          6.1550    -0.4810     1.0760 ca         1 1KL      -0.082000
     26 C26          6.8790     0.1550     0.0640 ca         1 1KL      -0.088300
     27 C27          6.1520     0.5930    -1.0370 ca         1 1KL      -0.082000
     28 C28          4.7750     0.4220    -1.1450 ca         1 1KL      -0.147500
     29 C29          8.3830     0.3500     0.2080 c3         1 1KL       0.004300
     30 C30          8.6600     1.2280     1.4360 c3         1 1KL      -0.082767
     31 C31          9.0610    -1.0130     0.3990 c3         1 1KL      -0.082767
     32 C32          9.0000     1.0270    -1.0160 c3         1 1KL      -0.082767
     33 H1          -7.0620     4.0660    -0.7890 h1         1 1KL       0.051700
     34 H2          -6.8450     4.2350     0.9690 h1         1 1KL       0.051700
     35 H3          -5.8530     5.1960    -0.1460 h1         1 1KL       0.051700
     36 H4          -5.9920    -3.2520     0.0330 h1         1 1KL       0.117700
     37 H5          -5.6890    -3.0040     1.7580 h1         1 1KL       0.117700
     38 H6          -2.5910    -1.1160    -2.1680 ha         1 1KL       0.131000
     39 H7          -0.2360    -0.6150    -2.6930 ha         1 1KL       0.132500
     40 H8           0.5860    -0.1950     1.5050 ha         1 1KL       0.132500
     41 H9          -1.7560    -0.6840     2.0100 ha         1 1KL       0.131000
     42 H10          2.3680    -0.9620     0.6840 hn         1 1KL       0.152000
     43 H11          4.2670    -1.1560     1.8020 ha         1 1KL       0.126500
     44 H12          6.6590    -0.8470     1.9620 ha         1 1KL       0.113000
     45 H13          6.6510     1.0900    -1.8580 ha         1 1KL       0.113000
     46 H14          4.2720     0.7860    -2.0250 ha         1 1KL       0.126500
     47 H15          8.2640     0.7870     2.3510 hc         1 1KL       0.034811
     48 H16          9.7350     1.3610     1.5740 hc         1 1KL       0.034811
     49 H17          8.2120     2.2170     1.3200 hc         1 1KL       0.034811
     50 H18          8.8950    -1.6620    -0.4630 hc         1 1KL       0.034811
     51 H19         10.1390    -0.8860     0.5180 hc         1 1KL       0.034811
     52 H20          8.6950    -1.5330     1.2860 hc         1 1KL       0.034811
     53 H21          8.5870     2.0220    -1.1870 hc         1 1KL       0.034811
     54 H22         10.0750     1.1420    -0.8690 hc         1 1KL       0.034811
     55 H23          8.8560     0.4390    -1.9250 hc         1 1KL       0.034811
@<TRIPOS>BOND
     1     1     2 1   
     2     1     3 1   
     3     1     7 2   
     4     2    17 3   
     5     3     4 2   
     6     3     5 1   
     7     5     6 1   
     8     6    33 1   
     9     6    34 1   
    10     6    35 1   
    11     7    18 1   
    12     7    19 1   
    13     8     9 1   
    14     8    18 1   
    15     8    20 2   
    16     9    19 1   
    17     9    36 1   
    18     9    37 1   
    19    10    11 ar  
    20    10    15 ar  
    21    10    18 1   
    22    11    12 ar  
    23    11    38 1   
    24    12    13 ar  
    25    12    39 1   
    26    13    14 ar  
    27    13    16 1   
    28    14    15 ar  
    29    14    40 1   
    30    15    41 1   
    31    16    21 2   
    32    16    22 1   
    33    22    23 1   
    34    22    42 1   
    35    23    24 ar  
    36    23    28 ar  
    37    24    25 ar  
    38    24    43 1   
    39    25    26 ar  
    40    25    44 1   
    41    26    27 ar  
    42    26    29 1   
    43    27    28 ar  
    44    27    45 1   
    45    28    46 1   
    46    29    30 1   
    47    29    31 1   
    48    29    32 1   
    49    30    47 1   
    50    30    48 1   
    51    30    49 1   
    52    31    50 1   
    53    31    51 1   
    54    31    52 1   
    55    32    53 1   
    56    32    54 1   
    57    32    55 1   
@<TRIPOS>SUBSTRUCTURE
     1 1KL         1 TEMP              0 ****  ****    0 ROOT
