@<TRIPOS>MOLECULE
1KL
   55    57     1     0     0
SMALL
No Charge or Current Charge


@<TRIPOS>ATOM
      1 C1          -4.7460     1.0790     0.1850 ce         1 1KL      -0.166900
      2 C2          -3.5580     1.7670     0.5980 cg         1 1KL       0.307700
      3 C4          -5.9400     1.9550    -0.1040 c          1 1KL       0.622300
      4 O5          -7.0340     1.5490    -0.4710 o          1 1KL      -0.503000
      5 O6          -5.6740     3.2940     0.0680 os         1 1KL      -0.419100
      6 C7          -6.7300     4.2410    -0.1850 c3         1 1KL       0.153900
      7 C8          -4.7700    -0.2870     0.1130 c2         1 1KL       0.241200
      8 C10         -4.0690    -2.5000     0.7650 c          1 1KL       0.579000
      9 C11         -5.5870    -2.5780     0.8760 c5         1 1KL      -0.128400
     10 C14         -2.3300    -0.9180     0.0050 ca         1 1KL      -0.050000
     11 C15         -2.0160    -0.3890    -1.2600 ca         1 1KL      -0.095000
     12 C16         -0.6840    -0.1050    -1.6030 ca         1 1KL      -0.060500
     13 C17          0.3690    -0.3430    -0.6890 ca         1 1KL      -0.131600
     14 C18          0.0440    -0.8780     0.5830 ca         1 1KL      -0.060500
     15 C19         -1.2900    -1.1610     0.9220 ca         1 1KL      -0.095000
     16 C20          1.7970    -0.0200    -1.0940 c          1 1KL       0.619700
     17 N3          -2.6070     2.3250     0.9790 n1         1 1KL      -0.449000
     18 N9          -3.7010    -1.1980     0.3500 n          1 1KL      -0.158600
     19 S12         -6.2150    -1.2740    -0.2570 ss         1 1KL      -0.084600
     20 O13         -3.2880    -3.4240     0.9530 o          1 1KL      -0.458000
     21 O21          2.0500     0.4390    -2.2030 o          1 1KL      -0.572100
     22 N22          2.7720    -0.2840    -0.1370 ns         1 1KL      -0.139000
     23 C23          4.1860    -0.1150    -0.1280 ca         1 1KL      -0.025000
     24 C24          4.8840    -0.5500     1.0100 ca         1 1KL      -0.147500
     25 C25          6.2800    -0.4170     1.0950 ca         1 1KL      -0.082000
     26 C26          7.0260     0.1600     0.0420 ca         1 1KL      -0.088300
     27 C27          6.3140     0.5990    -1.1010 ca         1 1KL      -0.082000
     28 C28          4.9170     0.4640    -1.1840 ca         1 1KL      -0.147500
     29 C29          8.5670     0.2890     0.1760 c3         1 1KL       0.004300
     30 C30          8.9030     1.1650     1.4130 c3         1 1KL      -0.082767
     31 C31          9.1860    -1.1230     0.3620 c3         1 1KL      -0.082767
     32 C32          9.2350     0.9430    -1.0670 c3         1 1KL      -0.082767
     33 H1          -7.0730     4.1770    -1.2260 h1         1 1KL       0.051700
     34 H2          -7.5870     4.0580     0.4770 h1         1 1KL       0.051700
     35 H3          -6.3750     5.2640    -0.0060 h1         1 1KL       0.051700
     36 H4          -5.9410    -3.5730     0.5840 h1         1 1KL       0.117700
     37 H5          -5.8740    -2.3580     1.9120 h1         1 1KL       0.117700
     38 H6          -2.8040    -0.2000    -1.9850 ha         1 1KL       0.131000
     39 H7          -0.4730     0.3040    -2.5900 ha         1 1KL       0.132500
     40 H8           0.8110    -1.0790     1.3270 ha         1 1KL       0.132500
     41 H9          -1.5140    -1.5620     1.9090 ha         1 1KL       0.131000
     42 H10          2.4090    -0.6690     0.7230 hn         1 1KL       0.152000
     43 H11          4.3440    -1.0000     1.8410 ha         1 1KL       0.126500
     44 H12          6.7790    -0.7690     1.9940 ha         1 1KL       0.113000
     45 H13          6.8240     1.0530    -1.9450 ha         1 1KL       0.113000
     46 H14          4.4250     0.8230    -2.0820 ha         1 1KL       0.126500
     47 H15          8.5400     0.7100     2.3420 hc         1 1KL       0.034811
     48 H16          9.9860     1.3020     1.5150 hc         1 1KL       0.034811
     49 H17          8.4430     2.1570     1.3200 hc         1 1KL       0.034811
     50 H18          8.9290    -1.7720    -0.4850 hc         1 1KL       0.034811
     51 H19         10.2790    -1.0670     0.4260 hc         1 1KL       0.034811
     52 H20          8.8270    -1.6060     1.2780 hc         1 1KL       0.034811
     53 H21          8.8550     1.9580    -1.2320 hc         1 1KL       0.034811
     54 H22         10.3210     1.0150    -0.9350 hc         1 1KL       0.034811
     55 H23          9.0530     0.3500    -1.9720 hc         1 1KL       0.034811
@<TRIPOS>BOND
     1     1     2 1   
     2     1     3 1   
     3     1     7 2   
     4     2    17 3   
     5     3     4 2   
     6     3     5 1   
     7     5     6 1   
     8     6    33 1   
     9     6    34 1   
    10     6    35 1   
    11     7    18 1   
    12     7    19 1   
    13     8     9 1   
    14     8    18 1   
    15     8    20 2   
    16     9    19 1   
    17     9    36 1   
    18     9    37 1   
    19    10    11 ar  
    20    10    15 ar  
    21    10    18 1   
    22    11    12 ar  
    23    11    38 1   
    24    12    13 ar  
    25    12    39 1   
    26    13    14 ar  
    27    13    16 1   
    28    14    15 ar  
    29    14    40 1   
    30    15    41 1   
    31    16    21 2   
    32    16    22 1   
    33    22    23 1   
    34    22    42 1   
    35    23    24 ar  
    36    23    28 ar  
    37    24    25 ar  
    38    24    43 1   
    39    25    26 ar  
    40    25    44 1   
    41    26    27 ar  
    42    26    29 1   
    43    27    28 ar  
    44    27    45 1   
    45    28    46 1   
    46    29    30 1   
    47    29    31 1   
    48    29    32 1   
    49    30    47 1   
    50    30    48 1   
    51    30    49 1   
    52    31    50 1   
    53    31    51 1   
    54    31    52 1   
    55    32    53 1   
    56    32    54 1   
    57    32    55 1   
@<TRIPOS>SUBSTRUCTURE
     1 1KL         1 TEMP              0 ****  ****    0 ROOT
