@<TRIPOS>MOLECULE
1KN
   33    34     1     0     0
SMALL
No Charge or Current Charge


@<TRIPOS>ATOM
      1 CAP          5.5780     0.3710     0.1910 c3         1 1KN       0.148900
      2 OAO          4.5490    -0.4070    -0.4470 os         1 1KN      -0.342100
      3 CAL          3.2090    -0.2150    -0.1780 ca         1 1KN       0.144100
      4 CAM          2.2820    -1.0230    -0.8510 ca         1 1KN      -0.172000
      5 CAN          0.9040    -0.8750    -0.6180 ca         1 1KN      -0.063000
      6 CAK          2.7460     0.7530     0.7380 ca         1 1KN      -0.172000
      7 CAJ          1.3670     0.9020     0.9700 ca         1 1KN      -0.063000
      8 CAI          0.4310     0.0930     0.2950 ca         1 1KN      -0.136300
      9 CAC         -1.0650     0.2730     0.5690 c5         1 1KN       0.235800
     10 NAD         -1.7440    -1.0110     0.9030 n7         1 1KN      -0.866400
     11 CAE         -2.8310    -1.1710    -0.1000 c5         1 1KN       0.183500
     12 CAF         -4.0180    -1.9830     0.4590 c3         1 1KN      -0.072100
     13 CAA         -3.1790     0.2800    -0.5860 c5         1 1KN       0.131300
     14 OAH         -3.9220     1.0630     0.3640 oh         1 1KN      -0.637000
     15 CAB         -1.7280     0.8160    -0.7540 c5         1 1KN       0.105300
     16 OAG         -1.6920     2.2490    -0.8790 oh         1 1KN      -0.645000
     17 H1           5.5510     0.2360     1.2800 h1         1 1KN       0.041367
     18 H2           6.5670     0.0570    -0.1650 h1         1 1KN       0.041367
     19 H3           5.4590     1.4380    -0.0360 h1         1 1KN       0.041367
     20 H4           2.6330    -1.7710    -1.5570 ha         1 1KN       0.122000
     21 H5           0.2040    -1.5130    -1.1540 ha         1 1KN       0.112000
     22 H6           3.4360     1.3960     1.2770 ha         1 1KN       0.122000
     23 H7           1.0250     1.6530     1.6790 ha         1 1KN       0.112000
     24 H8          -1.2230     0.9940     1.3850 h1         1 1KN       0.088700
     25 H9          -1.0750    -1.7830     0.8080 hn         1 1KN       0.422000
     26 H11         -2.4320    -1.7340    -0.9560 h1         1 1KN       0.016700
     27 H12         -4.4450    -1.5080     1.3510 hc         1 1KN       0.042700
     28 H13         -4.8150    -2.0730    -0.2880 hc         1 1KN       0.042700
     29 H14         -3.7050    -2.9960     0.7360 hc         1 1KN       0.042700
     30 H15         -3.7080     0.2560    -1.5490 h1         1 1KN       0.038700
     31 H16         -3.4840     1.9440     0.3540 ho         1 1KN       0.449000
     32 H17         -1.2680     0.3530    -1.6380 h1         1 1KN       0.037700
     33 H18         -1.7670     2.4590    -1.8370 ho         1 1KN       0.445000
@<TRIPOS>BOND
     1     1     2 1   
     2     1    17 1   
     3     1    18 1   
     4     1    19 1   
     5     2     3 1   
     6     3     4 ar  
     7     3     6 ar  
     8     4     5 ar  
     9     4    20 1   
    10     5     8 ar  
    11     5    21 1   
    12     6     7 ar  
    13     6    22 1   
    14     7     8 ar  
    15     7    23 1   
    16     8     9 1   
    17     9    10 1   
    18     9    15 1   
    19     9    24 1   
    20    10    11 1   
    21    10    25 1   
    22    11    12 1   
    23    11    13 1   
    24    11    26 1   
    25    12    27 1   
    26    12    28 1   
    27    12    29 1   
    28    13    14 1   
    29    13    15 1   
    30    13    30 1   
    31    14    31 1   
    32    15    16 1   
    33    15    32 1   
    34    16    33 1   
@<TRIPOS>SUBSTRUCTURE
     1 1KN         1 TEMP              0 ****  ****    0 ROOT
