@<TRIPOS>MOLECULE
1KN
   33    34     1     0     0
SMALL
bcc


@<TRIPOS>ATOM
      1 CAP          5.5150     0.3200     0.3180 c3         1 1KN       0.125700
      2 OAO          4.5580    -0.4010    -0.4310 os         1 1KN      -0.318900
      3 CAL          3.2520    -0.1830    -0.1830 ca         1 1KN       0.144100
      4 CAM          2.3440    -0.9150    -0.9550 ca         1 1KN      -0.190000
      5 CAN          0.9850    -0.7610    -0.7650 ca         1 1KN      -0.081000
      6 CAK          2.7670     0.7020     0.7740 ca         1 1KN      -0.190000
      7 CAJ          1.3930     0.8400     0.9500 ca         1 1KN      -0.081000
      8 CAI          0.4800     0.1240     0.1920 ca         1 1KN      -0.136300
      9 CAC         -1.0000     0.2820     0.4110 c5         1 1KN       0.235800
     10 NAD         -1.6790    -0.9630     0.7800 n7         1 1KN      -0.811200
     11 CAE         -2.8410    -1.1750    -0.0940 c5         1 1KN       0.183500
     12 CAF         -3.9670    -1.8980     0.6190 c3         1 1KN      -0.072100
     13 CAA         -3.1690     0.2260    -0.5910 c5         1 1KN       0.108100
     14 OAH         -3.8400     0.9490     0.4120 oh         1 1KN      -0.574800
     15 CAB         -1.7630     0.7790    -0.8240 c5         1 1KN       0.082100
     16 OAG         -1.6840     2.1760    -0.9200 oh         1 1KN      -0.582800
     17 H1           5.4440     0.1060     1.3870 h1         1 1KN       0.041367
     18 H2           6.4910     0.0010    -0.0380 h1         1 1KN       0.041367
     19 H3           5.4220     1.3990     0.1690 h1         1 1KN       0.041367
     20 H4           2.7170    -1.6040    -1.7040 ha         1 1KN       0.140000
     21 H5           0.3080    -1.3430    -1.3810 ha         1 1KN       0.130000
     22 H6           3.4340     1.2850     1.3940 ha         1 1KN       0.140000
     23 H7           1.0320     1.5260     1.7070 ha         1 1KN       0.130000
     24 H8          -1.1360     1.0280     1.2060 h1         1 1KN       0.088700
     25 H9          -1.0530    -1.7560     0.7590 hn         1 1KN       0.366800
     26 H11         -2.5650    -1.7580    -0.9840 h1         1 1KN       0.016700
     27 H12         -4.2670    -1.3680     1.5220 hc         1 1KN       0.042700
     28 H13         -4.8390    -2.0000    -0.0290 hc         1 1KN       0.042700
     29 H14         -3.6520    -2.9020     0.9070 hc         1 1KN       0.042700
     30 H15         -3.7580     0.1910    -1.5180 h1         1 1KN       0.038700
     31 H16         -3.7590     1.8850     0.1980 ho         1 1KN       0.410000
     32 H17         -1.3590     0.2930    -1.7230 h1         1 1KN       0.037700
     33 H18         -1.9700     2.4400    -1.8000 ho         1 1KN       0.406000
@<TRIPOS>BOND
     1     1     2 1   
     2     1    17 1   
     3     1    18 1   
     4     1    19 1   
     5     2     3 1   
     6     3     4 ar  
     7     3     6 ar  
     8     4     5 ar  
     9     4    20 1   
    10     5     8 ar  
    11     5    21 1   
    12     6     7 ar  
    13     6    22 1   
    14     7     8 ar  
    15     7    23 1   
    16     8     9 1   
    17     9    10 1   
    18     9    15 1   
    19     9    24 1   
    20    10    11 1   
    21    10    25 1   
    22    11    12 1   
    23    11    13 1   
    24    11    26 1   
    25    12    27 1   
    26    12    28 1   
    27    12    29 1   
    28    13    14 1   
    29    13    15 1   
    30    13    30 1   
    31    14    31 1   
    32    15    16 1   
    33    15    32 1   
    34    16    33 1   
@<TRIPOS>SUBSTRUCTURE
     1 1KN         1 TEMP              0 ****  ****    0 ROOT
