@<TRIPOS>MOLECULE
1KO
   45    48     1     0     0
SMALL
abcg2


@<TRIPOS>ATOM
      1 N01          0.2480    -0.3390    -0.1630 nc         1 1KO      -0.293600
      2 C02          1.4130     0.3530    -0.0690 cc         1 1KO       0.097400
      3 C03          1.1760     1.7080    -0.0240 cd         1 1KO      -0.204100
      4 N04         -0.1870     1.8450    -0.0910 na         1 1KO      -0.026400
      5 C05         -0.6970     0.5680    -0.1740 cd         1 1KO      -0.141000
      6 C06         -1.0420     2.9290    -0.0800 cc         1 1KO       0.391000
      7 N07         -2.3190     2.7410    -0.1330 nd         1 1KO      -0.633000
      8 C08         -2.8730     1.5210    -0.2070 cc         1 1KO       0.172900
      9 C09         -2.1040     0.3680    -0.2500 cd         1 1KO       0.380000
     10 N10         -2.5530    -0.8910    -0.3710 nu         1 1KO      -0.936200
     11 C11          2.7040    -0.3310    -0.0180 ca         1 1KO      -0.010800
     12 C12         -0.4980     4.3140    -0.0130 c          1 1KO       0.535600
     13 C13         -3.9420    -1.2860    -0.3090 c6         1 1KO       0.229500
     14 C14         -4.4270    -1.4110     1.1370 c6         1 1KO       0.134800
     15 N15         -5.8160    -1.8250     1.1480 n7         1 1KO      -0.862400
     16 C16         -5.9940    -3.1370     0.5520 c6         1 1KO       0.155800
     17 C17         -5.5710    -3.0970    -0.9080 c6         1 1KO      -0.073400
     18 C18         -4.1320    -2.6100    -1.0430 c6         1 1KO      -0.086400
     19 C19          3.9020     0.3820     0.0280 ca         1 1KO      -0.084500
     20 C20          5.1220    -0.2700     0.0830 ca         1 1KO      -0.108000
     21 C21          5.1480    -1.6570     0.0920 ca         1 1KO       0.121000
     22 C22          3.9730    -2.3910     0.0450 ca         1 1KO      -0.108000
     23 C23          2.7590    -1.7250    -0.0100 ca         1 1KO      -0.084500
     24 CL           6.6690    -2.4820     0.1640 cl         1 1KO      -0.206000
     25 N25         -1.4350     5.2660     0.0030 nt         1 1KO      -0.582000
     26 O26          0.7060     4.5340     0.0230 o          1 1KO      -0.614100
     27 H1           1.8360     2.5490     0.0520 h4         1 1KO       0.265000
     28 H2          -3.9530     1.4850    -0.2380 h4         1 1KO       0.036100
     29 H3          -1.8590    -1.6210    -0.3080 hn         1 1KO       0.514000
     30 H4          -4.5460    -0.5250    -0.8140 h1         1 1KO       0.077700
     31 H5          -3.7600    -2.1160     1.6610 h1         1 1KO       0.039200
     32 H6          -4.3390    -0.4480     1.6460 h1         1 1KO       0.039200
     33 H7          -6.1570    -1.8310     2.0990 hn         1 1KO       0.420000
     34 H9          -5.4130    -3.9170     1.0710 h1         1 1KO       0.033700
     35 H10         -7.0460    -3.4190     0.6310 h1         1 1KO       0.033700
     36 H11         -5.6730    -4.0880    -1.3530 hc         1 1KO       0.053200
     37 H12         -6.2390    -2.4270    -1.4570 hc         1 1KO       0.053200
     38 H13         -3.8570    -2.4950    -2.0940 hc         1 1KO       0.049700
     39 H14         -3.4530    -3.3560    -0.6120 hc         1 1KO       0.049700
     40 H15          3.8990     1.4640     0.0210 ha         1 1KO       0.126000
     41 H16          6.0400     0.3000     0.1200 ha         1 1KO       0.128500
     42 H17          3.9980    -3.4720     0.0510 ha         1 1KO       0.128500
     43 H18          1.8450    -2.3010    -0.0450 ha         1 1KO       0.126000
     44 H19         -2.4130     5.0340    -0.0330 hn         1 1KO       0.332500
     45 H20         -1.1660     6.2360     0.0330 hn         1 1KO       0.332500
@<TRIPOS>BOND
     1     1     2 1   
     2     1     5 2   
     3     2     3 2   
     4     2    11 1   
     5     3     4 1   
     6     3    27 1   
     7     4     5 1   
     8     4     6 1   
     9     5     9 1   
    10     6     7 2   
    11     6    12 1   
    12     7     8 1   
    13     8     9 2   
    14     8    28 1   
    15     9    10 1   
    16    10    13 1   
    17    10    29 1   
    18    11    19 ar  
    19    11    23 ar  
    20    12    25 1   
    21    12    26 2   
    22    13    14 1   
    23    13    18 1   
    24    13    30 1   
    25    14    15 1   
    26    14    31 1   
    27    14    32 1   
    28    15    16 1   
    29    15    33 1   
    30    16    17 1   
    31    16    34 1   
    32    16    35 1   
    33    17    18 1   
    34    17    36 1   
    35    17    37 1   
    36    18    38 1   
    37    18    39 1   
    38    19    20 ar  
    39    19    40 1   
    40    20    21 ar  
    41    20    41 1   
    42    21    22 ar  
    43    21    24 1   
    44    22    23 ar  
    45    22    42 1   
    46    23    43 1   
    47    25    44 1   
    48    25    45 1   
@<TRIPOS>SUBSTRUCTURE
     1 1KO         1 TEMP              0 ****  ****    0 ROOT
