@<TRIPOS>MOLECULE
1KO
   45    48     1     0     0
SMALL
No Charge or Current Charge


@<TRIPOS>ATOM
      1 N01          0.2910    -0.4650    -0.1960 nc         1 1KO      -0.293600
      2 C02          1.4430     0.2600    -0.0680 cc         1 1KO       0.097400
      3 C03          1.2220     1.6150     0.0390 cd         1 1KO      -0.204100
      4 N04         -0.1600     1.7260    -0.0430 na         1 1KO      -0.026400
      5 C05         -0.6680     0.4470    -0.1830 cd         1 1KO      -0.141000
      6 C06         -0.9460     2.9050     0.0090 cc         1 1KO       0.391000
      7 N07         -2.2850     2.6810    -0.0920 nd         1 1KO      -0.633000
      8 C08         -2.7980     1.4490    -0.2280 cc         1 1KO       0.172900
      9 C09         -2.0810     0.2580    -0.2850 cd         1 1KO       0.380000
     10 N10         -2.5960    -1.0170    -0.4230 nu         1 1KO      -0.936200
     11 C11          2.7940    -0.3210    -0.0100 ca         1 1KO      -0.010800
     12 C12         -0.4020     4.3130     0.1620 c          1 1KO       0.535600
     13 C13         -4.0360    -1.3420    -0.4030 c6         1 1KO       0.229500
     14 C14         -4.6060    -1.3250     1.0550 c6         1 1KO       0.134800
     15 N15         -6.0330    -1.7550     1.1160 n7         1 1KO      -0.862400
     16 C16         -6.2490    -3.0980     0.5240 c6         1 1KO       0.155800
     17 C17         -5.7440    -3.1560    -0.9400 c6         1 1KO      -0.073400
     18 C18         -4.2540    -2.7370    -1.0400 c6         1 1KO      -0.086400
     19 C19          3.9470     0.4650    -0.2460 ca         1 1KO      -0.084500
     20 C20          5.2280    -0.1150    -0.2160 ca         1 1KO      -0.108000
     21 C21          5.3740    -1.4860     0.0380 ca         1 1KO       0.121000
     22 C22          4.2400    -2.2820     0.2550 ca         1 1KO      -0.108000
     23 C23          2.9580    -1.7050     0.2250 ca         1 1KO      -0.084500
     24 Cl           6.9770    -2.2090     0.0730 cl         1 1KO      -0.206000
     25 N25         -1.3260     5.3110     0.1910 nt         1 1KO      -0.582000
     26 O26          0.7790     4.6220     0.2590 o          1 1KO      -0.614100
     27 H1           1.9020     2.4480     0.1710 h4         1 1KO       0.265000
     28 H2          -3.8770     1.4730    -0.2920 h4         1 1KO       0.036100
     29 H3          -1.8990    -1.7640    -0.3990 hn         1 1KO       0.514000
     30 H4          -4.6020    -0.6080    -0.9990 h1         1 1KO       0.077700
     31 H5          -4.0020    -1.9940     1.6870 h1         1 1KO       0.039200
     32 H6          -4.5160    -0.3110     1.4720 h1         1 1KO       0.039200
     33 H7          -6.3380    -1.7700     2.0990 hn         1 1KO       0.420000
     34 H9          -5.7160    -3.8510     1.1240 h1         1 1KO       0.033700
     35 H10         -7.3200    -3.3450     0.5560 h1         1 1KO       0.033700
     36 H11         -5.8750    -4.1720    -1.3370 hc         1 1KO       0.053200
     37 H12         -6.3590    -2.4950    -1.5670 hc         1 1KO       0.053200
     38 H13         -3.9390    -2.7250    -2.0920 hc         1 1KO       0.049700
     39 H14         -3.6320    -3.4850    -0.5300 hc         1 1KO       0.049700
     40 H15          3.8610     1.5260    -0.4640 ha         1 1KO       0.126000
     41 H16          6.1070     0.4990    -0.3950 ha         1 1KO       0.128500
     42 H17          4.3530    -3.3470     0.4440 ha         1 1KO       0.128500
     43 H18          2.0910    -2.3380     0.3930 ha         1 1KO       0.126000
     44 H19         -2.3070     5.0780     0.1110 hn         1 1KO       0.332500
     45 H20         -1.0260     6.2690     0.2900 hn         1 1KO       0.332500
@<TRIPOS>BOND
     1     1     2 1   
     2     1     5 2   
     3     2     3 2   
     4     2    11 1   
     5     3     4 1   
     6     3    27 1   
     7     4     5 1   
     8     4     6 1   
     9     5     9 1   
    10     6     7 2   
    11     6    12 1   
    12     7     8 1   
    13     8     9 2   
    14     8    28 1   
    15     9    10 1   
    16    10    13 1   
    17    10    29 1   
    18    11    19 ar  
    19    11    23 ar  
    20    12    25 1   
    21    12    26 2   
    22    13    14 1   
    23    13    18 1   
    24    13    30 1   
    25    14    15 1   
    26    14    31 1   
    27    14    32 1   
    28    15    16 1   
    29    15    33 1   
    30    16    17 1   
    31    16    34 1   
    32    16    35 1   
    33    17    18 1   
    34    17    36 1   
    35    17    37 1   
    36    18    38 1   
    37    18    39 1   
    38    19    20 ar  
    39    19    40 1   
    40    20    21 ar  
    41    20    41 1   
    42    21    22 ar  
    43    21    24 1   
    44    22    23 ar  
    45    22    42 1   
    46    23    43 1   
    47    25    44 1   
    48    25    45 1   
@<TRIPOS>SUBSTRUCTURE
     1 1KO         1 TEMP              0 ****  ****    0 ROOT
