@<TRIPOS>MOLECULE
1KP
   18    19     1     0     0
SMALL
No Charge or Current Charge


@<TRIPOS>ATOM
      1 Cl1          3.5560    -1.0140    -0.0420 cl         1 1KP      -0.161000
      2 C4           1.8020    -0.8310    -0.0330 ca         1 1KP       0.167000
      3 C3           0.9930    -1.9920    -0.0320 ca         1 1KP      -0.141000
      4 C2          -0.4160    -1.8970    -0.0240 ca         1 1KP      -0.011000
      5 C5           1.2090     0.4520    -0.0260 ca         1 1KP       0.062000
      6 Cl           2.1760     1.9300    -0.0280 cl         1 1KP      -0.161000
      7 C6          -0.1900     0.5170    -0.0190 ca         1 1KP       0.094600
      8 C1          -0.9960    -0.6140    -0.0180 ca         1 1KP      -0.203900
      9 N1          -1.0300     1.6320    -0.0120 ns         1 1KP      -0.401100
     10 C7          -2.3720     1.3400    -0.0060 c          1 1KP       0.492700
     11 O1          -3.2860     2.1570     0.0010 o          1 1KP      -0.473000
     12 C           -2.4020    -0.1590    -0.0100 cc         1 1KP       0.349900
     13 N           -3.5280    -0.8330    -0.0060 n2         1 1KP      -0.239700
     14 O           -3.4490    -2.2380    -0.0100 oh         1 1KP      -0.495000
     15 H1           1.4640    -2.9710    -0.0360 ha         1 1KP       0.139000
     16 H2          -1.0180    -2.8020    -0.0230 ha         1 1KP       0.141000
     17 H3          -0.6820     2.5840    -0.0110 hn         1 1KP       0.357500
     18 H6          -4.3880    -2.5440    -0.0060 ho         1 1KP       0.484000
@<TRIPOS>BOND
     1     1     2 1   
     2     2     3 ar  
     3     2     5 ar  
     4     3     4 ar  
     5     3    15 1   
     6     4     8 ar  
     7     4    16 1   
     8     5     6 1   
     9     5     7 ar  
    10     7     8 ar  
    11     7     9 1   
    12     8    12 1   
    13     9    10 1   
    14     9    17 1   
    15    10    11 2   
    16    10    12 1   
    17    12    13 2   
    18    13    14 1   
    19    14    18 1   
@<TRIPOS>SUBSTRUCTURE
     1 1KP         1 TEMP              0 ****  ****    0 ROOT
