@<TRIPOS>MOLECULE
1KP
   18    19     1     0     0
SMALL
bcc


@<TRIPOS>ATOM
      1 CL1          3.4730    -0.9540    -0.0430 cl         1 1KP      -0.069400
      2 C4           1.7590    -0.8300    -0.0330 ca         1 1KP       0.075400
      3 C3           0.9930    -1.9860    -0.0310 ca         1 1KP      -0.159000
      4 C2          -0.3950    -1.9110    -0.0230 ca         1 1KP      -0.029000
      5 C5           1.1640     0.4330    -0.0260 ca         1 1KP      -0.029600
      6 CL           2.0880     1.8800    -0.0280 cl         1 1KP      -0.069400
      7 C6          -0.2140     0.4960    -0.0190 ca         1 1KP       0.094600
      8 C1          -0.9990    -0.6660    -0.0170 ca         1 1KP      -0.203900
      9 N1          -1.0120     1.6210    -0.0130 ns         1 1KP      -0.468100
     10 C7          -2.3410     1.3000    -0.0060 c          1 1KP       0.635200
     11 O1          -3.2710     2.0700     0.0010 o          1 1KP      -0.548500
     12 C           -2.3770    -0.2010    -0.0090 cc         1 1KP       0.349900
     13 N           -3.5070    -0.7860    -0.0070 n2         1 1KP      -0.338200
     14 O           -3.4220    -2.1180    -0.0100 oh         1 1KP      -0.357500
     15 H1           1.4830    -2.9500    -0.0360 ha         1 1KP       0.157000
     16 H2          -0.9750    -2.8210    -0.0220 ha         1 1KP       0.159000
     17 H3          -0.6680     2.5710    -0.0110 hn         1 1KP       0.357500
     18 H6          -4.3360    -2.4310    -0.0080 ho         1 1KP       0.445000
@<TRIPOS>BOND
     1     1     2 1   
     2     2     3 ar  
     3     2     5 ar  
     4     3     4 ar  
     5     3    15 1   
     6     4     8 ar  
     7     4    16 1   
     8     5     6 1   
     9     5     7 ar  
    10     7     8 ar  
    11     7     9 1   
    12     8    12 1   
    13     9    10 1   
    14     9    17 1   
    15    10    11 2   
    16    10    12 1   
    17    12    13 2   
    18    13    14 1   
    19    14    18 1   
@<TRIPOS>SUBSTRUCTURE
     1 1KP         1 TEMP              0 ****  ****    0 ROOT
