@<TRIPOS>MOLECULE
1KR
   84    86     1     0     0
SMALL
No Charge or Current Charge


@<TRIPOS>ATOM
      1 C16         -5.3260    -1.0360    -1.3610 c          1 1KR       0.641100
      2 O17         -5.4570    -1.1950    -2.5640 o          1 1KR      -0.556000
      3 O24         -6.2190    -1.4050    -0.4050 os         1 1KR      -0.454100
      4 C41         -7.4380    -2.0270    -0.8420 c3         1 1KR       0.231900
      5 C18         -8.2800    -2.3490     0.3860 ca         1 1KR      -0.102300
      6 C19         -9.2000    -1.4050     0.8840 ca         1 1KR      -0.084000
      7 C20         -9.9780    -1.7030     2.0170 ca         1 1KR      -0.115500
      8 C21         -9.8390    -2.9450     2.6590 ca         1 1KR      -0.097000
      9 C22         -8.9210    -3.8890     2.1690 ca         1 1KR      -0.115500
     10 C23         -8.1430    -3.5920     1.0360 ca         1 1KR      -0.084000
     11 N15         -4.2380    -0.4790    -0.7550 ns         1 1KR      -0.493900
     12 C13         -3.0440     0.0440    -1.4500 c3         1 1KR       0.048700
     13 C11         -1.8490     0.1650    -0.4580 c          1 1KR       0.593100
     14 O12         -1.9700     0.0220     0.7530 o          1 1KR      -0.602100
     15 C14         -3.3560     1.3930    -2.1400 c3         1 1KR      -0.115100
     16 C28          2.4510    -2.8630    -0.6260 cx         1 1KR       0.034700
     17 C27          1.6260    -2.4970     0.5880 cx         1 1KR      -0.099400
     18 C26          1.3880    -1.7910    -0.7240 cx         1 1KR      -0.128700
     19 C25          1.7240    -0.3040    -0.8800 c3         1 1KR      -0.062400
     20 C9           0.6300     0.6360    -0.3220 c3         1 1KR       0.112700
     21 C8           1.0650     2.1210    -0.3560 c3         1 1KR      -0.089400
     22 C7           0.0470     3.0960     0.2790 c3         1 1KR      -0.030100
     23 C6           0.5600     4.5290     0.2850 ca         1 1KR      -0.079300
     24 C1           0.2810     5.3880    -0.7970 ca         1 1KR      -0.108000
     25 C2           0.7600     6.7100    -0.7940 ca         1 1KR      -0.109500
     26 C3           1.5210     7.1800     0.2890 ca         1 1KR      -0.112000
     27 C4           1.8040     6.3280     1.3700 ca         1 1KR      -0.109500
     28 C5           1.3250     5.0060     1.3670 ca         1 1KR      -0.108000
     29 N10         -0.6320     0.4480    -1.0450 ns         1 1KR      -0.499900
     30 O40          4.5690     0.0250     1.9460 o          1 1KR      -0.518100
     31 C39          5.6510    -0.5000     1.7100 c          1 1KR       0.576900
     32 C34          6.1730    -0.7380     0.2820 c3         1 1KR      -0.205700
     33 C35          7.5250     0.0200     0.0270 c3         1 1KR      -0.043700
     34 C37          7.3920     1.5440     0.3370 c3         1 1KR      -0.079400
     35 C38          8.7060     2.3530     0.2480 c3         1 1KR      -0.088100
     36 C36          8.0620    -0.2170    -1.4120 c3         1 1KR      -0.087100
     37 C32          6.2260    -2.2780     0.0240 c3         1 1KR       0.102300
     38 O33          7.1960    -2.8790     0.9140 oh         1 1KR      -0.648000
     39 C30          4.8230    -2.9650     0.1520 c          1 1KR       0.560100
     40 O31          4.6210    -3.8920     0.9270 o          1 1KR      -0.596100
     41 H37         -8.0000    -1.3570    -1.5070 h1         1 1KR       0.055200
     42 H38         -7.2270    -2.9520    -1.3950 h1         1 1KR       0.055200
     43 H39         -9.3120    -0.4400     0.3940 ha         1 1KR       0.114500
     44 H40        -10.6870    -0.9710     2.3970 ha         1 1KR       0.114000
     45 H41        -10.4410    -3.1750     3.5360 ha         1 1KR       0.113000
     46 H42         -8.8110    -4.8500     2.6660 ha         1 1KR       0.114000
     47 H43         -7.4330    -4.3270     0.6640 ha         1 1KR       0.114500
     48 H36         -4.2650    -0.4460     0.2580 hn         1 1KR       0.354500
     49 H32         -2.7460    -0.6830    -2.2170 h1         1 1KR       0.077700
     50 H33         -2.4830     1.7640    -2.6910 hc         1 1KR       0.051367
     51 H34         -4.1800     1.2860    -2.8550 hc         1 1KR       0.051367
     52 H35         -3.6400     2.1500    -1.3990 hc         1 1KR       0.051367
     53 H16          4.1020    -1.7080    -1.2900 hn         1 1KR       0.319500
     54 H17          2.2590    -3.8250    -1.1040 h1         1 1KR       0.087700
     55 H18          0.8780    -3.2100     0.9240 hc         1 1KR       0.092200
     56 H19          2.1150    -1.9440     1.3870 hc         1 1KR       0.092200
     57 H20          0.4890    -2.0710    -1.2690 hc         1 1KR       0.082700
     58 H21          2.6630    -0.0760    -0.3610 hc         1 1KR       0.050700
     59 H22          1.8930    -0.0750    -1.9390 hc         1 1KR       0.050700
     60 H23          0.4810     0.3640     0.7330 h1         1 1KR       0.095700
     61 H24          2.0200     2.2220     0.1750 hc         1 1KR       0.048200
     62 H25         -0.9030     3.0450    -0.2660 hc         1 1KR       0.054200
     63 H26         -0.3050     5.0300    -1.6400 ha         1 1KR       0.110500
     64 H27          0.5410     7.3680    -1.6320 ha         1 1KR       0.111500
     65 H28          1.8910     8.2030     0.2910 ha         1 1KR       0.112000
     66 H29          2.3940     6.6900     2.2080 ha         1 1KR       0.111500
     67 H30          1.5510     4.3510     2.2060 ha         1 1KR       0.110500
     68 H31         -0.6230     0.5440    -2.0540 hn         1 1KR       0.309500
     69 H1           1.2500     2.4220    -1.3950 hc         1 1KR       0.048200
     70 H3          -0.1720     2.7710     1.3040 hc         1 1KR       0.054200
     71 H2           6.3220    -0.8260     2.5350 h4         1 1KR       0.001200
     72 H4           5.4320    -0.3060    -0.4010 hc         1 1KR       0.066700
     73 H5           8.2730    -0.3850     0.7210 hc         1 1KR       0.065700
     74 H6           6.6530     1.9920    -0.3390 hc         1 1KR       0.037700
     75 H7           7.0050     1.6820     1.3530 hc         1 1KR       0.037700
     76 H8           8.5490     3.3700     0.6260 hc         1 1KR       0.034700
     77 H9           9.4940     1.8840     0.8500 hc         1 1KR       0.034700
     78 H10          9.0560     2.4360    -0.7870 hc         1 1KR       0.034700
     79 H11          8.2570    -1.2790    -1.5970 hc         1 1KR       0.037367
     80 H12          7.3440     0.1400    -2.1610 hc         1 1KR       0.037367
     81 H13          9.0130     0.3010    -1.5750 hc         1 1KR       0.037367
     82 H14          6.5210    -2.4520    -1.0190 h1         1 1KR       0.074700
     83 H15          6.8190    -3.7480     1.1900 ho         1 1KR       0.476000
     84 N29          3.8310    -2.4540    -0.6600 ns         1 1KR      -0.461900
@<TRIPOS>BOND
     1     1     2 2   
     2     1     3 1   
     3     1    11 1   
     4     3     4 1   
     5     4     5 1   
     6     4    41 1   
     7     4    42 1   
     8     5     6 ar  
     9     5    10 ar  
    10     6     7 ar  
    11     6    43 1   
    12     7     8 ar  
    13     7    44 1   
    14     8     9 ar  
    15     8    45 1   
    16     9    10 ar  
    17     9    46 1   
    18    10    47 1   
    19    11    12 1   
    20    11    48 1   
    21    12    13 1   
    22    12    15 1   
    23    12    49 1   
    24    13    14 2   
    25    13    29 1   
    26    15    50 1   
    27    15    51 1   
    28    15    52 1   
    29    16    17 1   
    30    16    18 1   
    31    16    54 1   
    32    16    84 1   
    33    17    18 1   
    34    17    55 1   
    35    17    56 1   
    36    18    19 1   
    37    18    57 1   
    38    19    20 1   
    39    19    58 1   
    40    19    59 1   
    41    20    21 1   
    42    20    29 1   
    43    20    60 1   
    44    21    22 1   
    45    21    61 1   
    46    21    69 1   
    47    22    23 1   
    48    22    62 1   
    49    22    70 1   
    50    23    24 ar  
    51    23    28 ar  
    52    24    25 ar  
    53    24    63 1   
    54    25    26 ar  
    55    25    64 1   
    56    26    27 ar  
    57    26    65 1   
    58    27    28 ar  
    59    27    66 1   
    60    28    67 1   
    61    29    68 1   
    62    30    31 2   
    63    31    32 1   
    64    31    71 1   
    65    32    33 1   
    66    32    37 1   
    67    32    72 1   
    68    33    34 1   
    69    33    36 1   
    70    33    73 1   
    71    34    35 1   
    72    34    74 1   
    73    34    75 1   
    74    35    76 1   
    75    35    77 1   
    76    35    78 1   
    77    36    79 1   
    78    36    80 1   
    79    36    81 1   
    80    37    38 1   
    81    37    39 1   
    82    37    82 1   
    83    38    83 1   
    84    39    40 2   
    85    39    84 1   
    86    53    84 1   
@<TRIPOS>SUBSTRUCTURE
     1 1KR         1 TEMP              0 ****  ****    0 ROOT
