@<TRIPOS>MOLECULE
1KR
   84    86     1     0     0
SMALL
bcc


@<TRIPOS>ATOM
      1 C16         -5.1960    -0.7490    -1.1120 c          1 1KR       0.757100
      2 O17         -5.3920    -0.6640    -2.3080 o          1 1KR      -0.605000
      3 O24         -6.0440    -1.3320    -0.2560 os         1 1KR      -0.430900
      4 C41         -7.2450    -1.8850    -0.8080 c3         1 1KR       0.208700
      5 C18         -7.9960    -2.5110     0.3280 ca         1 1KR      -0.102300
      6 C19         -8.9760    -1.7950     1.0090 ca         1 1KR      -0.102000
      7 C20         -9.6550    -2.3670     2.0770 ca         1 1KR      -0.133500
      8 C21         -9.3560    -3.6630     2.4750 ca         1 1KR      -0.115000
      9 C22         -8.3780    -4.3840     1.8010 ca         1 1KR      -0.133500
     10 C23         -7.7020    -3.8100     0.7340 ca         1 1KR      -0.102000
     11 N15         -4.1100    -0.2890    -0.4710 ns         1 1KR      -0.560900
     12 C13         -3.0740     0.4480    -1.1480 c3         1 1KR       0.048700
     13 C11         -1.8060     0.3700    -0.3020 c          1 1KR       0.660100
     14 O12         -1.8570     0.1810     0.9050 o          1 1KR      -0.602100
     15 C14         -3.4510     1.9160    -1.3690 c3         1 1KR      -0.115100
     16 C28          2.2060    -2.8150    -0.7610 cx         1 1KR       0.034700
     17 C27          1.3780    -2.3970     0.4130 cx         1 1KR      -0.099400
     18 C26          1.1900    -1.7150    -0.9040 cx         1 1KR      -0.128700
     19 C25          1.6130    -0.2790    -1.0680 c3         1 1KR      -0.062400
     20 C9           0.6480     0.7040    -0.4090 c3         1 1KR       0.112700
     21 C8           1.1550     2.1410    -0.5310 c3         1 1KR      -0.089400
     22 C7           0.3310     3.1490     0.2690 c3         1 1KR      -0.030100
     23 C6           0.8190     4.5550     0.0590 ca         1 1KR      -0.079300
     24 C1           0.2100     5.3900    -0.8750 ca         1 1KR      -0.126000
     25 C2           0.6880     6.6740    -1.1030 ca         1 1KR      -0.127500
     26 C3           1.7880     7.1430    -0.3970 ca         1 1KR      -0.130000
     27 C4           2.4040     6.3200     0.5370 ca         1 1KR      -0.127500
     28 C5           1.9220     5.0370     0.7600 ca         1 1KR      -0.126000
     29 N10         -0.6770     0.5800    -0.9890 ns         1 1KR      -0.566900
     30 O40          4.0550    -0.0420     1.7110 o          1 1KR      -0.518100
     31 C39          5.1850    -0.4450     1.5820 c          1 1KR       0.576900
     32 C34          5.8570    -0.7090     0.2590 c3         1 1KR      -0.205700
     33 C35          7.2630    -0.0820     0.2590 c3         1 1KR      -0.043700
     34 C37          7.1440     1.4350     0.4550 c3         1 1KR      -0.079400
     35 C38          8.4720     2.1440     0.6810 c3         1 1KR      -0.088100
     36 C36          8.0380    -0.4180    -1.0100 c3         1 1KR      -0.087100
     37 C32          5.8780    -2.2380     0.0010 c3         1 1KR       0.079100
     38 O33          6.7460    -2.9040     0.8660 oh         1 1KR      -0.585800
     39 C30          4.4670    -2.8120     0.1570 c          1 1KR       0.627100
     40 O31          4.2040    -3.4930     1.1380 o          1 1KR      -0.596100
     41 H37         -7.8400    -1.0990    -1.2790 h1         1 1KR       0.055200
     42 H38         -7.0030    -2.6300    -1.5680 h1         1 1KR       0.055200
     43 H39         -9.2140    -0.7840     0.7000 ha         1 1KR       0.132500
     44 H40        -10.4180    -1.8010     2.5950 ha         1 1KR       0.132000
     45 H41         -9.8860    -4.1120     3.3050 ha         1 1KR       0.131000
     46 H42         -8.1440    -5.3960     2.1050 ha         1 1KR       0.132000
     47 H43         -6.9440    -4.3800     0.2100 ha         1 1KR       0.132500
     48 H36         -4.0520    -0.3580     0.5340 hn         1 1KR       0.354500
     49 H32         -2.8870    -0.0190    -2.1180 h1         1 1KR       0.077700
     50 H33         -2.6610     2.4540    -1.8940 hc         1 1KR       0.051367
     51 H34         -4.3550     1.9840    -1.9720 hc         1 1KR       0.051367
     52 H35         -3.6330     2.4160    -0.4170 hc         1 1KR       0.051367
     53 H16          3.9380    -2.0030    -1.6150 hn         1 1KR       0.319500
     54 H17          1.9600    -3.7650    -1.2230 h1         1 1KR       0.087700
     55 H18          0.6220    -3.0880     0.7630 hc         1 1KR       0.092200
     56 H19          1.8700    -1.8390     1.2000 hc         1 1KR       0.092200
     57 H20          0.3060    -1.9980    -1.4650 hc         1 1KR       0.082700
     58 H21          2.5950    -0.1180    -0.6180 hc         1 1KR       0.050700
     59 H22          1.7150    -0.0360    -2.1320 hc         1 1KR       0.050700
     60 H23          0.5540     0.4450     0.6470 h1         1 1KR       0.095700
     61 H24          2.1940     2.1720    -0.1890 hc         1 1KR       0.048200
     62 H25         -0.7200     3.0820    -0.0250 hc         1 1KR       0.054200
     63 H26         -0.6520     5.0330    -1.4270 ha         1 1KR       0.128500
     64 H27          0.1980     7.3090    -1.8310 ha         1 1KR       0.129500
     65 H28          2.1590     8.1450    -0.5710 ha         1 1KR       0.130000
     66 H29          3.2610     6.6780     1.0930 ha         1 1KR       0.129500
     67 H30          2.4070     4.4020     1.4930 ha         1 1KR       0.128500
     68 H31         -0.7470     0.7120    -1.9880 hn         1 1KR       0.309500
     69 H1           1.1690     2.4320    -1.5870 hc         1 1KR       0.048200
     70 H3           0.3780     2.8910     1.3310 hc         1 1KR       0.054200
     71 H2           5.8080    -0.6640     2.4690 h4         1 1KR       0.001200
     72 H4           5.2550    -0.2440    -0.5300 hc         1 1KR       0.066700
     73 H5           7.8100    -0.4900     1.1170 hc         1 1KR       0.065700
     74 H6           6.6330     1.8660    -0.4130 hc         1 1KR       0.037700
     75 H7           6.4980     1.6480     1.3130 hc         1 1KR       0.037700
     76 H8           8.3130     3.2020     0.8900 hc         1 1KR       0.034700
     77 H9           9.0050     1.7180     1.5340 hc         1 1KR       0.034700
     78 H10          9.1300     2.0820    -0.1850 hc         1 1KR       0.034700
     79 H11          8.2120    -1.4880    -1.1210 hc         1 1KR       0.037367
     80 H12          7.5080    -0.0680    -1.8980 hc         1 1KR       0.037367
     81 H13          9.0190     0.0570    -1.0030 hc         1 1KR       0.037367
     82 H14          6.2090    -2.3940    -1.0320 h1         1 1KR       0.074700
     83 H15          6.1980    -3.3540     1.5260 ho         1 1KR       0.437000
     84 N29          3.5910    -2.4770    -0.7950 ns         1 1KR      -0.528900
@<TRIPOS>BOND
     1     1     2 2   
     2     1     3 1   
     3     1    11 1   
     4     3     4 1   
     5     4     5 1   
     6     4    41 1   
     7     4    42 1   
     8     5     6 ar  
     9     5    10 ar  
    10     6     7 ar  
    11     6    43 1   
    12     7     8 ar  
    13     7    44 1   
    14     8     9 ar  
    15     8    45 1   
    16     9    10 ar  
    17     9    46 1   
    18    10    47 1   
    19    11    12 1   
    20    11    48 1   
    21    12    13 1   
    22    12    15 1   
    23    12    49 1   
    24    13    14 2   
    25    13    29 1   
    26    15    50 1   
    27    15    51 1   
    28    15    52 1   
    29    16    17 1   
    30    16    18 1   
    31    16    54 1   
    32    16    84 1   
    33    17    18 1   
    34    17    55 1   
    35    17    56 1   
    36    18    19 1   
    37    18    57 1   
    38    19    20 1   
    39    19    58 1   
    40    19    59 1   
    41    20    21 1   
    42    20    29 1   
    43    20    60 1   
    44    21    22 1   
    45    21    61 1   
    46    21    69 1   
    47    22    23 1   
    48    22    62 1   
    49    22    70 1   
    50    23    24 ar  
    51    23    28 ar  
    52    24    25 ar  
    53    24    63 1   
    54    25    26 ar  
    55    25    64 1   
    56    26    27 ar  
    57    26    65 1   
    58    27    28 ar  
    59    27    66 1   
    60    28    67 1   
    61    29    68 1   
    62    30    31 2   
    63    31    32 1   
    64    31    71 1   
    65    32    33 1   
    66    32    37 1   
    67    32    72 1   
    68    33    34 1   
    69    33    36 1   
    70    33    73 1   
    71    34    35 1   
    72    34    74 1   
    73    34    75 1   
    74    35    76 1   
    75    35    77 1   
    76    35    78 1   
    77    36    79 1   
    78    36    80 1   
    79    36    81 1   
    80    37    38 1   
    81    37    39 1   
    82    37    82 1   
    83    38    83 1   
    84    39    40 2   
    85    39    84 1   
    86    53    84 1   
@<TRIPOS>SUBSTRUCTURE
     1 1KR         1 TEMP              0 ****  ****    0 ROOT
