@<TRIPOS>MOLECULE
1KS
   61    65     1     0     0
SMALL
abcg2


@<TRIPOS>ATOM
      1 F1          -6.9770    -3.5750    -0.5450 f          1 1KS      -0.167000
      2 C1          -6.1570    -2.5460    -0.3040 ca         1 1KS       0.179000
      3 O1          -3.8970     1.3620     1.6080 o          1 1KS      -0.578100
      4 N1          -2.4240     0.8840    -0.0490 n          1 1KS      -0.400800
      5 C10         -1.4660     1.8470     0.5240 c6         1 1KS       0.117700
      6 C11         -0.4670     2.4280    -0.4770 c6         1 1KS      -0.093900
      7 C12          0.7280     1.5350    -0.7800 c6         1 1KS       0.196800
      8 C13          0.4330     0.3280     1.2870 c6         1 1KS       0.196800
      9 C14         -0.7060     1.2420     1.7080 c6         1 1KS      -0.093900
     10 C15          2.6530     0.6060     0.3520 ca         1 1KS       0.546900
     11 C16          3.7120     1.4920    -0.0400 ca         1 1KS      -0.073000
     12 C17          4.9830     0.9160    -0.2170 ca         1 1KS      -0.040000
     13 C18          6.0430     1.7160    -0.6850 ca         1 1KS      -0.087000
     14 C19          5.8480     3.0570    -0.8970 ca         1 1KS      -0.093000
     15 C2          -6.5860    -1.2720    -0.6170 ca         1 1KS      -0.112000
     16 F2          -7.1610     1.1830    -1.6310 f          1 1KS      -0.106667
     17 N2           1.3630     1.0820     0.4590 nh         1 1KS      -0.756300
     18 C20          4.6030     3.6480    -0.6270 ca         1 1KS      -0.103000
     19 C21          3.5470     2.8790    -0.2070 ca         1 1KS      -0.079000
     20 C22          5.1120    -0.4610     0.1450 ca         1 1KS       0.367500
     21 C23          6.4000    -1.1590     0.0890 cc         1 1KS      -0.211500
     22 C24          7.6330    -0.8020     0.6000 cd         1 1KS      -0.212000
     23 C25          8.4600    -1.8930     0.3130 cd         1 1KS       0.234900
     24 C3          -5.7400    -0.2010    -0.3620 ca         1 1KS      -0.137300
     25 N3           4.1080    -1.1600     0.5920 nb         1 1KS      -0.303000
     26 C4          -6.2170     1.1860    -0.6860 c3         1 1KS       0.358300
     27 F4          -6.7410     1.7950     0.3830 f          1 1KS      -0.106667
     28 N4           2.8790    -0.6460     0.6580 nb         1 1KS      -0.399000
     29 C5          -4.4780    -0.4120     0.1890 ca         1 1KS      -0.109600
     30 N5           7.7960    -2.8390    -0.3270 nc         1 1KS      -0.517800
     31 C6          -4.0790    -1.7120     0.4810 ca         1 1KS      -0.070000
     32 N6           6.5550    -2.3870    -0.4550 na         1 1KS       0.159800
     33 C7          -4.9130    -2.7910     0.2400 ca         1 1KS      -0.128000
     34 C8          -3.5750     0.7100     0.6250 c          1 1KS       0.607700
     35 C9          -2.1370     0.1690    -1.2780 c3         1 1KS       0.092300
     36 H1          -2.0610     2.6810     0.8960 h1         1 1KS       0.082700
     37 H2          -0.9550     2.7210    -1.4080 hc         1 1KS       0.062450
     38 H3          -0.0950     3.3530    -0.0300 hc         1 1KS       0.062450
     39 H4           0.4330     0.6620    -1.3730 h1         1 1KS       0.048200
     40 H5           1.4390     2.0870    -1.3900 h1         1 1KS       0.048200
     41 H6           0.9540    -0.0310     2.1730 h1         1 1KS       0.048200
     42 H7           0.0580    -0.5620     0.7630 h1         1 1KS       0.048200
     43 H8          -0.2910     2.0610     2.3010 hc         1 1KS       0.062450
     44 H9          -1.3890     0.6970     2.3610 hc         1 1KS       0.062450
     45 H10          7.0120     1.2760    -0.8760 ha         1 1KS       0.136000
     46 H11          6.6650     3.6690    -1.2570 ha         1 1KS       0.121000
     47 H12         -7.5660    -1.1360    -1.0530 ha         1 1KS       0.153000
     48 H13          4.4760     4.7150    -0.7510 ha         1 1KS       0.121000
     49 H14          2.5960     3.3420     0.0170 ha         1 1KS       0.132000
     50 H15          7.8860     0.1050     1.1240 ha         1 1KS       0.146000
     51 H16          9.5060    -2.0220     0.5440 h4         1 1KS       0.038100
     52 H17          4.9610    -3.7570    -0.4020 h1         1 1KS       0.060700
     53 H18          4.9100    -2.5880    -1.7280 h1         1 1KS       0.060700
     54 H19          6.0870    -3.9050    -1.7660 h1         1 1KS       0.060700
     55 H20         -3.0990    -1.8920     0.9040 ha         1 1KS       0.132000
     56 H21         -4.5980    -3.8000     0.4710 ha         1 1KS       0.142000
     57 H22         -1.4140    -0.6340    -1.1310 h1         1 1KS       0.042367
     58 H23         -3.0420    -0.2670    -1.6890 h1         1 1KS       0.042367
     59 H24         -1.7490     0.8480    -2.0340 h1         1 1KS       0.042367
     60 C26          5.5640    -3.2060    -1.1200 c3         1 1KS       0.072900
     61 F3          -5.2230     1.9620    -1.1340 f          1 1KS      -0.106667
@<TRIPOS>BOND
     1     1     2 1   
     2     2    15 ar  
     3     2    33 ar  
     4     3    34 2   
     5     4     5 1   
     6     4    34 1   
     7     4    35 1   
     8     5     6 1   
     9     5     9 1   
    10     5    36 1   
    11     6     7 1   
    12     6    37 1   
    13     6    38 1   
    14     7    17 1   
    15     7    39 1   
    16     7    40 1   
    17     8     9 1   
    18     8    17 1   
    19     8    41 1   
    20     8    42 1   
    21     9    43 1   
    22     9    44 1   
    23    10    11 ar  
    24    10    17 1   
    25    10    28 ar  
    26    11    12 ar  
    27    11    19 ar  
    28    12    13 ar  
    29    12    20 ar  
    30    13    14 ar  
    31    13    45 1   
    32    14    18 ar  
    33    14    46 1   
    34    15    24 ar  
    35    15    47 1   
    36    16    26 1   
    37    18    19 ar  
    38    18    48 1   
    39    19    49 1   
    40    20    21 1   
    41    20    25 ar  
    42    21    22 2   
    43    21    32 1   
    44    22    23 1   
    45    22    50 1   
    46    23    30 2   
    47    23    51 1   
    48    24    26 1   
    49    24    29 ar  
    50    25    28 ar  
    51    26    27 1   
    52    26    61 1   
    53    29    31 ar  
    54    29    34 1   
    55    30    32 1   
    56    31    33 ar  
    57    31    55 1   
    58    32    60 1   
    59    33    56 1   
    60    35    57 1   
    61    35    58 1   
    62    35    59 1   
    63    52    60 1   
    64    53    60 1   
    65    54    60 1   
@<TRIPOS>SUBSTRUCTURE
     1 1KS         1 TEMP              0 ****  ****    0 ROOT
