@<TRIPOS>MOLECULE
1KS
   61    65     1     0     0
SMALL
No Charge or Current Charge


@<TRIPOS>ATOM
      1 F1          -6.6170    -3.9510    -0.2940 f          1 1KS      -0.167000
      2 C1          -5.9390    -2.7950    -0.1250 ca         1 1KS       0.179000
      3 O1          -4.0670     1.6880     1.3370 o          1 1KS      -0.578100
      4 N1          -2.4710     1.0250    -0.1850 n          1 1KS      -0.400800
      5 C10         -1.5030     2.0840     0.2690 c6         1 1KS       0.117700
      6 C11         -0.4690     2.6040    -0.7780 c6         1 1KS      -0.093900
      7 C12          0.6980     1.6210    -1.0610 c6         1 1KS       0.196800
      8 C13          0.3660     0.5690     1.1590 c6         1 1KS       0.196800
      9 C14         -0.7230     1.6000     1.5190 c6         1 1KS      -0.093900
     10 C15          2.6520     0.6600     0.1400 ca         1 1KS       0.546900
     11 C16          3.7890     1.4910    -0.0300 ca         1 1KS      -0.073000
     12 C17          5.0640     0.8710    -0.1150 ca         1 1KS      -0.040000
     13 C18          6.2050     1.6750    -0.3450 ca         1 1KS      -0.087000
     14 C19          6.0860     3.0710    -0.4400 ca         1 1KS      -0.093000
     15 C2          -6.6100    -1.5700    -0.2410 ca         1 1KS      -0.112000
     16 F2          -7.8740     0.8210    -0.8820 f          1 1KS      -0.106667
     17 N2           1.3320     1.1610     0.1990 nh         1 1KS      -0.756300
     18 C20          4.8300     3.6830    -0.3130 ca         1 1KS      -0.103000
     19 C21          3.6840     2.8980    -0.1120 ca         1 1KS      -0.079000
     20 C22          5.1280    -0.5470     0.0080 ca         1 1KS       0.367500
     21 C23          6.3880    -1.3050    -0.0210 cc         1 1KS      -0.211500
     22 C24          7.4680    -1.0220     0.7680 cd         1 1KS      -0.212000
     23 C25          8.3610    -2.1040     0.6400 cd         1 1KS       0.234900
     24 C3          -5.9220    -0.3420    -0.0710 ca         1 1KS      -0.137300
     25 N3           3.9900    -1.2750     0.1530 nb         1 1KS      -0.303000
     26 C4          -6.6910     0.9850    -0.2460 c3         1 1KS       0.358300
     27 F4          -6.9740     1.5610     0.9440 f          1 1KS      -0.106667
     28 N4           2.7790    -0.6860     0.2190 nb         1 1KS      -0.399000
     29 C5          -4.5270    -0.3780     0.2330 ca         1 1KS      -0.109600
     30 N5           7.8830    -3.0690    -0.1270 nc         1 1KS      -0.517800
     31 C6          -3.8720    -1.6260     0.3490 ca         1 1KS      -0.070000
     32 N6           6.6390    -2.5900    -0.4980 na         1 1KS       0.159800
     33 C7          -4.5720    -2.8280     0.1670 ca         1 1KS      -0.128000
     34 C8          -3.7140     0.8790     0.4870 c          1 1KS       0.607700
     35 C9          -2.2420     0.2930    -1.4620 c3         1 1KS       0.092300
     36 H1          -2.0970     2.9600     0.5680 h1         1 1KS       0.082700
     37 H2          -0.9680     2.8910    -1.7130 hc         1 1KS       0.062450
     38 H3          -0.0330     3.5340    -0.3910 hc         1 1KS       0.062450
     39 H4           0.3440     0.7540    -1.6340 h1         1 1KS       0.048200
     40 H5           1.4370     2.1330    -1.6950 h1         1 1KS       0.048200
     41 H6           0.8830     0.2690     2.0830 h1         1 1KS       0.048200
     42 H7          -0.1000    -0.3320     0.7320 h1         1 1KS       0.048200
     43 H8          -0.2500     2.4620     2.0090 hc         1 1KS       0.062450
     44 H9          -1.4120     1.1710     2.2580 hc         1 1KS       0.062450
     45 H10          7.1900     1.2330    -0.4680 ha         1 1KS       0.136000
     46 H11          6.9710     3.6800    -0.6130 ha         1 1KS       0.121000
     47 H12         -7.6730    -1.5890    -0.4670 ha         1 1KS       0.153000
     48 H13          4.7430     4.7650    -0.3810 ha         1 1KS       0.121000
     49 H14          2.7180     3.3900    -0.0200 ha         1 1KS       0.132000
     50 H15          7.6120    -0.1520     1.4010 ha         1 1KS       0.146000
     51 H16          9.3280    -2.2290     1.1100 h4         1 1KS       0.038100
     52 H17          5.0230    -3.9240    -0.7230 h1         1 1KS       0.060700
     53 H18          5.2430    -2.7670    -2.0700 h1         1 1KS       0.060700
     54 H19          6.3550    -4.1540    -1.8940 h1         1 1KS       0.060700
     55 H20         -2.8130    -1.6650     0.6010 ha         1 1KS       0.132000
     56 H21         -4.0600    -3.7820     0.2600 ha         1 1KS       0.142000
     57 H22         -1.5160    -0.5130    -1.3010 h1         1 1KS       0.042367
     58 H23         -3.1740    -0.1420    -1.8440 h1         1 1KS       0.042367
     59 H24         -1.8720     0.9660    -2.2430 h1         1 1KS       0.042367
     60 C26          5.7610    -3.4100    -1.3490 c3         1 1KS       0.072900
     61 F3          -5.9980     1.8880    -0.9780 f          1 1KS      -0.106667
@<TRIPOS>BOND
     1     1     2 1   
     2     2    15 ar  
     3     2    33 ar  
     4     3    34 2   
     5     4     5 1   
     6     4    34 1   
     7     4    35 1   
     8     5     6 1   
     9     5     9 1   
    10     5    36 1   
    11     6     7 1   
    12     6    37 1   
    13     6    38 1   
    14     7    17 1   
    15     7    39 1   
    16     7    40 1   
    17     8     9 1   
    18     8    17 1   
    19     8    41 1   
    20     8    42 1   
    21     9    43 1   
    22     9    44 1   
    23    10    11 ar  
    24    10    17 1   
    25    10    28 ar  
    26    11    12 ar  
    27    11    19 ar  
    28    12    13 ar  
    29    12    20 ar  
    30    13    14 ar  
    31    13    45 1   
    32    14    18 ar  
    33    14    46 1   
    34    15    24 ar  
    35    15    47 1   
    36    16    26 1   
    37    18    19 ar  
    38    18    48 1   
    39    19    49 1   
    40    20    21 1   
    41    20    25 ar  
    42    21    22 2   
    43    21    32 1   
    44    22    23 1   
    45    22    50 1   
    46    23    30 2   
    47    23    51 1   
    48    24    26 1   
    49    24    29 ar  
    50    25    28 ar  
    51    26    27 1   
    52    26    61 1   
    53    29    31 ar  
    54    29    34 1   
    55    30    32 1   
    56    31    33 ar  
    57    31    55 1   
    58    32    60 1   
    59    33    56 1   
    60    35    57 1   
    61    35    58 1   
    62    35    59 1   
    63    52    60 1   
    64    53    60 1   
    65    54    60 1   
@<TRIPOS>SUBSTRUCTURE
     1 1KS         1 TEMP              0 ****  ****    0 ROOT
