@<TRIPOS>MOLECULE
1KT
   70    74     1     0     0
SMALL
bcc


@<TRIPOS>ATOM
      1 O3          -0.8410    -3.7920     0.4200 o          1 1KT      -0.635500
      2 C11         -1.0370    -2.6280     0.7370 c          1 1KT       0.701500
      3 C12          0.1480    -1.7080     0.9630 c6         1 1KT       0.031700
      4 N10         -2.2670    -2.1060     0.9100 n          1 1KT      -0.466800
      5 C9          -3.4150    -2.8610     0.4390 c6         1 1KT       0.090000
      6 C8          -3.7750    -2.3190    -0.9300 c6         1 1KT      -0.062100
      7 C7          -4.0010    -0.8330    -0.8410 ca         1 1KT       0.011700
      8 C6          -4.7860    -0.2160    -1.8070 ca         1 1KT      -0.201000
      9 C5          -5.1310     1.1230    -1.6840 ca         1 1KT       0.191100
     10 O2          -5.8660     1.6500    -2.6800 os         1 1KT      -0.314900
     11 C27         -6.2640     3.0040    -2.5940 c3         1 1KT       0.125700
     12 C4          -4.7470     1.8340    -0.5490 ca         1 1KT      -0.303000
     13 C3          -3.9740     1.2020     0.4200 ca         1 1KT       0.193100
     14 O1          -3.6390     1.8020     1.5780 os         1 1KT      -0.333900
     15 C26         -4.0410     3.1360     1.8200 c3         1 1KT       0.128700
     16 C2          -3.5140    -0.1130     0.2520 ca         1 1KT      -0.180300
     17 C1          -2.5910    -0.7330     1.2930 c6         1 1KT       0.184000
     18 C16         -1.3180     0.1070     1.5560 c6         1 1KT       0.096700
     19 C15         -0.8430     0.0490     3.0060 c6         1 1KT      -0.083400
     20 C14         -0.3400    -1.3310     3.4090 c6         1 1KT      -0.080400
     21 C13          0.6760    -1.8380     2.3950 c6         1 1KT      -0.079400
     22 N17         -0.2560    -0.3480     0.6830 n          1 1KT      -0.461800
     23 C18          0.1640     0.3820    -0.3590 c          1 1KT       0.594100
     24 O4          -0.2350     1.4970    -0.6480 o          1 1KT      -0.572100
     25 C19          1.2320    -0.2250    -1.2670 c          1 1KT       0.509700
     26 O5           0.8720    -0.7820    -2.2790 o          1 1KT      -0.480100
     27 C20          2.6430     0.0020    -0.9070 ca         1 1KT      -0.105600
     28 C21          3.6330    -0.3790    -1.8080 ca         1 1KT      -0.196000
     29 C25          2.9630     0.5730     0.3220 ca         1 1KT      -0.196000
     30 C24          4.2980     0.7590     0.6630 ca         1 1KT       0.143600
     31 O8           4.7200     1.2840     1.8220 os         1 1KT      -0.298900
     32 C30          3.7510     1.6570     2.7820 c3         1 1KT       0.120200
     33 C23          5.3010     0.3800    -0.2340 ca         1 1KT       0.056100
     34 O7           6.6000     0.5290     0.1050 os         1 1KT      -0.307900
     35 C29          7.1640     1.7920    -0.2380 c3         1 1KT       0.126700
     36 C22          4.9660    -0.1780    -1.4770 ca         1 1KT       0.143600
     37 O6           6.0040    -0.4890    -2.2640 os         1 1KT      -0.298900
     38 C28          5.7390    -1.0730    -3.5260 c3         1 1KT       0.120200
     39 H1           0.9270    -2.0310     0.2710 h1         1 1KT       0.095700
     40 H2          -3.1800    -3.9200     0.4120 h1         1 1KT       0.067200
     41 H3          -4.2400    -2.7210     1.1420 h1         1 1KT       0.067200
     42 H4          -2.9810    -2.5590    -1.6430 hc         1 1KT       0.067700
     43 H5          -4.6820    -2.8020    -1.3010 hc         1 1KT       0.067700
     44 H6          -5.1580    -0.7900    -2.6480 ha         1 1KT       0.149000
     45 H7          -6.9260     3.1830    -1.7420 h1         1 1KT       0.041033
     46 H8          -5.4080     3.6790    -2.5220 h1         1 1KT       0.041033
     47 H9          -6.8080     3.2240    -3.5090 h1         1 1KT       0.041033
     48 H10         -5.0590     2.8580    -0.4100 ha         1 1KT       0.140000
     49 H11         -3.6470     3.4000     2.7980 h1         1 1KT       0.042367
     50 H12         -3.6350     3.8270     1.0780 h1         1 1KT       0.042367
     51 H13         -5.1290     3.2350     1.8390 h1         1 1KT       0.042367
     52 H14         -3.1370    -0.7860     2.2450 h1         1 1KT       0.066700
     53 H15         -1.5190     1.1430     1.3100 h1         1 1KT       0.106700
     54 H16         -0.0390     0.7830     3.1230 hc         1 1KT       0.051200
     55 H17         -1.6580     0.3730     3.6560 hc         1 1KT       0.051200
     56 H18          0.1170    -1.2870     4.3990 hc         1 1KT       0.050200
     57 H19         -1.1740    -2.0330     3.4940 hc         1 1KT       0.050200
     58 H20          0.9370    -2.8810     2.5820 hc         1 1KT       0.059700
     59 H21          1.6030    -1.2640     2.4680 hc         1 1KT       0.059700
     60 H22          3.3460    -0.8190    -2.7530 ha         1 1KT       0.154000
     61 H23          2.1810     0.8710     1.0060 ha         1 1KT       0.154000
     62 H24          3.1500     0.8020     3.1040 h1         1 1KT       0.044533
     63 H25          4.2980     2.0400     3.6390 h1         1 1KT       0.044533
     64 H26          3.0870     2.4410     2.4090 h1         1 1KT       0.044533
     65 H27          6.6510     2.6130     0.2670 h1         1 1KT       0.036700
     66 H28          8.2020     1.7740     0.0860 h1         1 1KT       0.036700
     67 H29          7.1350     1.9660    -1.3150 h1         1 1KT       0.036700
     68 H30          6.7050    -1.2300    -4.0000 h1         1 1KT       0.044533
     69 H31          5.2340    -2.0370    -3.4290 h1         1 1KT       0.044533
     70 H32          5.1360    -0.4180    -4.1590 h1         1 1KT       0.044533
@<TRIPOS>BOND
     1     1     2 2   
     2     2     3 1   
     3     2     4 1   
     4     3    21 1   
     5     3    22 1   
     6     3    39 1   
     7     4     5 1   
     8     4    17 1   
     9     5     6 1   
    10     5    40 1   
    11     5    41 1   
    12     6     7 1   
    13     6    42 1   
    14     6    43 1   
    15     7     8 ar  
    16     7    16 ar  
    17     8     9 ar  
    18     8    44 1   
    19     9    10 1   
    20     9    12 ar  
    21    10    11 1   
    22    11    45 1   
    23    11    46 1   
    24    11    47 1   
    25    12    13 ar  
    26    12    48 1   
    27    13    14 1   
    28    13    16 ar  
    29    14    15 1   
    30    15    49 1   
    31    15    50 1   
    32    15    51 1   
    33    16    17 1   
    34    17    18 1   
    35    17    52 1   
    36    18    19 1   
    37    18    22 1   
    38    18    53 1   
    39    19    20 1   
    40    19    54 1   
    41    19    55 1   
    42    20    21 1   
    43    20    56 1   
    44    20    57 1   
    45    21    58 1   
    46    21    59 1   
    47    22    23 1   
    48    23    24 2   
    49    23    25 1   
    50    25    26 2   
    51    25    27 1   
    52    27    28 ar  
    53    27    29 ar  
    54    28    36 ar  
    55    28    60 1   
    56    29    30 ar  
    57    29    61 1   
    58    30    31 1   
    59    30    33 ar  
    60    31    32 1   
    61    32    62 1   
    62    32    63 1   
    63    32    64 1   
    64    33    34 1   
    65    33    36 ar  
    66    34    35 1   
    67    35    65 1   
    68    35    66 1   
    69    35    67 1   
    70    36    37 1   
    71    37    38 1   
    72    38    68 1   
    73    38    69 1   
    74    38    70 1   
@<TRIPOS>SUBSTRUCTURE
     1 1KT         1 TEMP              0 ****  ****    0 ROOT
