@<TRIPOS>MOLECULE
1KT
   70    74     1     0     0
SMALL
No Charge or Current Charge


@<TRIPOS>ATOM
      1 O3          -0.6830    -3.5760    -0.2770 o          1 1KT      -0.560000
      2 C11         -0.8390    -2.4890     0.2660 c          1 1KT       0.559000
      3 C12          0.3270    -1.4780     0.3240 c6         1 1KT       0.031700
      4 N10         -2.1300    -2.0490     0.6480 n          1 1KT      -0.399800
      5 C9          -3.3160    -2.8960     0.4170 c6         1 1KT       0.090000
      6 C8          -4.0340    -2.3860    -0.8410 c6         1 1KT      -0.062100
      7 C7          -4.4130    -0.9180    -0.6780 ca         1 1KT       0.011700
      8 C6          -5.5130    -0.4180    -1.3920 ca         1 1KT      -0.183000
      9 C5          -5.9650     0.8880    -1.1880 ca         1 1KT       0.191100
     10 O2          -7.0530     1.3130    -1.9230 os         1 1KT      -0.338100
     11 C27         -7.6050     2.6350    -1.7880 c3         1 1KT       0.148900
     12 C4          -5.3340     1.6980    -0.2270 ca         1 1KT      -0.285000
     13 C3          -4.2250     1.2090     0.4960 ca         1 1KT       0.193100
     14 O1          -3.6430     1.9590     1.5010 os         1 1KT      -0.357100
     15 C26         -4.0900     3.2810     1.8510 c3         1 1KT       0.151900
     16 C2          -3.7130    -0.0870     0.2310 ca         1 1KT      -0.180300
     17 C1          -2.4620    -0.6200     0.9910 c6         1 1KT       0.184000
     18 C16         -1.2220     0.3560     0.8950 c6         1 1KT       0.096700
     19 C15         -0.5640     0.5590     2.2880 c6         1 1KT      -0.083400
     20 C14          0.0530    -0.7620     2.8100 c6         1 1KT      -0.080400
     21 C13          0.9780    -1.3950     1.7410 c6         1 1KT      -0.079400
     22 N17         -0.1730    -0.1240    -0.0420 n          1 1KT      -0.394800
     23 C18          0.3820     0.6860    -1.0670 c          1 1KT       0.527100
     24 O4          -0.0680     1.8080    -1.2930 o          1 1KT      -0.572100
     25 C19          1.6090     0.1260    -1.9120 c          1 1KT       0.509700
     26 O5           1.4250    -0.3470    -3.0340 o          1 1KT      -0.480100
     27 C20          2.9980     0.1750    -1.2940 ca         1 1KT      -0.105600
     28 C21          4.0790    -0.4710    -1.9240 ca         1 1KT      -0.178000
     29 C25          3.2300     0.8550    -0.0800 ca         1 1KT      -0.178000
     30 C24          4.5120     0.8830     0.5190 ca         1 1KT       0.143600
     31 O8           4.7000     1.5420     1.7240 os         1 1KT      -0.322100
     32 C30          3.6330     2.1610     2.4660 c3         1 1KT       0.143400
     33 C23          5.6020     0.2250    -0.1290 ca         1 1KT       0.056100
     34 O7           6.9100     0.1870     0.3580 os         1 1KT      -0.331100
     35 C29          7.3590     0.8060     1.5770 c3         1 1KT       0.149900
     36 C22          5.3700    -0.4470    -1.3530 ca         1 1KT       0.143600
     37 O6           6.4410    -1.0800    -1.9660 os         1 1KT      -0.322100
     38 C28          6.3190    -1.7930    -3.2100 c3         1 1KT       0.143400
     39 H1           1.0730    -1.8390    -0.3960 h1         1 1KT       0.095700
     40 H2          -3.0390    -3.9530     0.2960 h1         1 1KT       0.067200
     41 H3          -3.9890    -2.8300     1.2840 h1         1 1KT       0.067200
     42 H4          -3.3860    -2.5080    -1.7190 hc         1 1KT       0.067700
     43 H5          -4.9300    -2.9960    -1.0210 hc         1 1KT       0.067700
     44 H6          -6.0370    -1.0550    -2.1000 ha         1 1KT       0.131000
     45 H7          -7.9630     2.8060    -0.7650 h1         1 1KT       0.041033
     46 H8          -6.8540     3.3980    -2.0330 h1         1 1KT       0.041033
     47 H9          -8.4540     2.7630    -2.4710 h1         1 1KT       0.041033
     48 H10         -5.7110     2.6950    -0.0360 ha         1 1KT       0.122000
     49 H11         -3.4810     3.6820     2.6710 h1         1 1KT       0.042367
     50 H12         -3.9990     3.9630     0.9960 h1         1 1KT       0.042367
     51 H13         -5.1360     3.2650     2.1830 h1         1 1KT       0.042367
     52 H14         -2.7740    -0.6310     2.0460 h1         1 1KT       0.066700
     53 H15         -1.5680     1.3390     0.5550 h1         1 1KT       0.106700
     54 H16          0.2200     1.3250     2.2090 hc         1 1KT       0.051200
     55 H17         -1.2990     0.9450     3.0070 hc         1 1KT       0.051200
     56 H18          0.6210    -0.5710     3.7310 hc         1 1KT       0.050200
     57 H19         -0.7410    -1.4700     3.0850 hc         1 1KT       0.050200
     58 H20          1.2870    -2.3980     2.0660 hc         1 1KT       0.059700
     59 H21          1.9020    -0.8060     1.6780 hc         1 1KT       0.059700
     60 H22          3.9010    -0.9940    -2.8590 ha         1 1KT       0.136000
     61 H23          2.4000     1.3640     0.4000 ha         1 1KT       0.136000
     62 H24          2.8640     1.4240     2.7330 h1         1 1KT       0.044533
     63 H25          4.0210     2.5970     3.3940 h1         1 1KT       0.044533
     64 H26          3.1660     2.9660     1.8840 h1         1 1KT       0.044533
     65 H27          6.8330     0.3890     2.4450 h1         1 1KT       0.036700
     66 H28          8.4310     0.6250     1.7180 h1         1 1KT       0.036700
     67 H29          7.2040     1.8920     1.5460 h1         1 1KT       0.036700
     68 H30          7.2900    -2.2100    -3.5050 h1         1 1KT       0.044533
     69 H31          5.6080    -2.6240    -3.1150 h1         1 1KT       0.044533
     70 H32          5.9790    -1.1250    -4.0110 h1         1 1KT       0.044533
@<TRIPOS>BOND
     1     1     2 2   
     2     2     3 1   
     3     2     4 1   
     4     3    21 1   
     5     3    22 1   
     6     3    39 1   
     7     4     5 1   
     8     4    17 1   
     9     5     6 1   
    10     5    40 1   
    11     5    41 1   
    12     6     7 1   
    13     6    42 1   
    14     6    43 1   
    15     7     8 ar  
    16     7    16 ar  
    17     8     9 ar  
    18     8    44 1   
    19     9    10 1   
    20     9    12 ar  
    21    10    11 1   
    22    11    45 1   
    23    11    46 1   
    24    11    47 1   
    25    12    13 ar  
    26    12    48 1   
    27    13    14 1   
    28    13    16 ar  
    29    14    15 1   
    30    15    49 1   
    31    15    50 1   
    32    15    51 1   
    33    16    17 1   
    34    17    18 1   
    35    17    52 1   
    36    18    19 1   
    37    18    22 1   
    38    18    53 1   
    39    19    20 1   
    40    19    54 1   
    41    19    55 1   
    42    20    21 1   
    43    20    56 1   
    44    20    57 1   
    45    21    58 1   
    46    21    59 1   
    47    22    23 1   
    48    23    24 2   
    49    23    25 1   
    50    25    26 2   
    51    25    27 1   
    52    27    28 ar  
    53    27    29 ar  
    54    28    36 ar  
    55    28    60 1   
    56    29    30 ar  
    57    29    61 1   
    58    30    31 1   
    59    30    33 ar  
    60    31    32 1   
    61    32    62 1   
    62    32    63 1   
    63    32    64 1   
    64    33    34 1   
    65    33    36 ar  
    66    34    35 1   
    67    35    65 1   
    68    35    66 1   
    69    35    67 1   
    70    36    37 1   
    71    37    38 1   
    72    38    68 1   
    73    38    69 1   
    74    38    70 1   
@<TRIPOS>SUBSTRUCTURE
     1 1KT         1 TEMP              0 ****  ****    0 ROOT
