@<TRIPOS>MOLECULE
1KV
   63    66     1     0     0
SMALL
No Charge or Current Charge


@<TRIPOS>ATOM
      1 CAB          1.8800    -2.2620     1.5660 c3         1 1KV       0.145900
      2 OAS          2.3330    -1.4400     0.4750 os         1 1KV      -0.446000
      3 CBB          3.6950    -0.9510     0.5200 c6         1 1KV       0.158300
      4 CAH          4.7240    -2.1100     0.4060 c6         1 1KV      -0.104400
      5 CAG          6.1810    -1.5800     0.4060 c6         1 1KV      -0.106400
      6 CAZ          6.4040    -0.5130    -0.7020 c6         1 1KV       0.173300
      7 OAR          7.7320     0.0500    -0.6420 os         1 1KV      -0.454000
      8 CAA          8.8410    -0.8260    -0.9190 c3         1 1KV       0.147900
      9 CAO          5.3690     0.6290    -0.5690 c6         1 1KV      -0.096400
     10 CBA          3.9160     0.0890    -0.6190 c6         1 1KV       0.118700
     11 NAQ          2.9520     1.1960    -0.5070 ns         1 1KV      -0.501900
     12 C            2.5300     2.0050    -1.5420 c          1 1KV       0.598100
     13 O            2.9910     1.9030    -2.6720 o          1 1KV      -0.579100
     14 CA           1.4260     3.0350    -1.1600 c3         1 1KV       0.093800
     15 N           -0.0040     2.6060    -1.2990 n3         1 1KV      -0.702600
     16 CAK         -0.9660     3.7110    -1.0020 c6         1 1KV       0.168300
     17 CAM         -2.4540     3.2730    -1.1880 c6         1 1KV       0.163800
     18 CAJ         -0.3510     1.3950    -0.4880 c6         1 1KV       0.168300
     19 CAL         -1.8390     0.9600    -0.6700 c6         1 1KV       0.163800
     20 NBD         -2.7990     2.0690    -0.3720 n3         1 1KV      -0.723600
     21 CAP         -4.2180     1.6710    -0.5180 c3         1 1KV       0.216100
     22 CAW         -4.6270     0.5450     0.4280 ca         1 1KV      -0.084300
     23 CAF         -4.9710    -0.7280    -0.0840 ca         1 1KV      -0.096000
     24 CAY         -5.3340    -1.7320     0.8230 ca         1 1KV       0.050100
     25 OAU         -5.6960    -3.0000     0.5010 os         1 1KV      -0.346100
     26 CAI         -5.9200    -3.6190     1.8180 c5         1 1KV       0.373600
     27 OAT         -5.7500    -2.6040     2.8710 os         1 1KV      -0.346100
     28 CAX         -5.3650    -1.5070     2.1700 ca         1 1KV       0.050100
     29 CAE         -5.0340    -0.2610     2.7150 ca         1 1KV      -0.100000
     30 CAD         -4.6600     0.7720     1.8270 ca         1 1KV      -0.092000
     31 H1           2.0380    -1.7550     2.5270 h1         1 1KV       0.029033
     32 H2           0.8080    -2.4700     1.4620 h1         1 1KV       0.029033
     33 H3           2.4080    -3.2230     1.5850 h1         1 1KV       0.029033
     34 H4           3.8410    -0.4440     1.4850 h1         1 1KV       0.028700
     35 H5           4.6060    -2.8130     1.2420 hc         1 1KV       0.052200
     36 H6           4.5380    -2.6810    -0.5140 hc         1 1KV       0.052200
     37 H7           6.4150    -1.1460     1.3890 hc         1 1KV       0.049700
     38 H8           6.8640    -2.4280     0.2650 hc         1 1KV       0.049700
     39 H9           6.2740    -0.9880    -1.6860 h1         1 1KV       0.038700
     40 H10          9.7770    -0.2550    -0.9450 h1         1 1KV       0.028700
     41 H11          8.9420    -1.5970    -0.1440 h1         1 1KV       0.028700
     42 H12          8.7160    -1.3200    -1.8910 h1         1 1KV       0.028700
     43 H13          5.5340     1.1720     0.3710 hc         1 1KV       0.061200
     44 H14          5.5240     1.3520    -1.3810 hc         1 1KV       0.061200
     45 H15          3.7550    -0.4150    -1.5840 h1         1 1KV       0.092700
     46 H16          2.4920     1.3330     0.3840 hn         1 1KV       0.307500
     47 H17          1.6190     3.3450    -0.1240 h1         1 1KV       0.043200
     48 H18          1.6030     3.9190    -1.7870 h1         1 1KV       0.043200
     49 H20         -0.8330     4.0590     0.0330 h1         1 1KV       0.039200
     50 H21         -0.7700     4.5720    -1.6580 h1         1 1KV       0.039200
     51 H22         -3.1040     4.1170    -0.9160 h1         1 1KV       0.043700
     52 H23         -2.6250     3.0670    -2.2560 h1         1 1KV       0.043700
     53 H24          0.2890     0.5460    -0.7700 h1         1 1KV       0.039200
     54 H25         -0.1730     1.5920     0.5800 h1         1 1KV       0.039200
     55 H26         -1.9760     0.6100    -1.7050 h1         1 1KV       0.043700
     56 H27         -2.0270     0.0980    -0.0140 h1         1 1KV       0.043700
     57 H29         -4.8660     2.5340    -0.3130 h1         1 1KV       0.040200
     58 H30         -4.4170     1.3640    -1.5540 h1         1 1KV       0.040200
     59 H31         -4.9540    -0.9310    -1.1520 ha         1 1KV       0.132000
     60 H32         -6.9360    -4.0270     1.8630 h2         1 1KV       0.062700
     61 H33         -5.1860    -4.4190     1.9680 h2         1 1KV       0.062700
     62 H34         -5.0630    -0.0960     3.7890 ha         1 1KV       0.132000
     63 H35         -4.3910     1.7500     2.2220 ha         1 1KV       0.134000
@<TRIPOS>BOND
     1     1     2 1   
     2     1    31 1   
     3     1    32 1   
     4     1    33 1   
     5     2     3 1   
     6     3     4 1   
     7     3    10 1   
     8     3    34 1   
     9     4     5 1   
    10     4    35 1   
    11     4    36 1   
    12     5     6 1   
    13     5    37 1   
    14     5    38 1   
    15     6     7 1   
    16     6     9 1   
    17     6    39 1   
    18     7     8 1   
    19     8    40 1   
    20     8    41 1   
    21     8    42 1   
    22     9    10 1   
    23     9    43 1   
    24     9    44 1   
    25    10    11 1   
    26    10    45 1   
    27    11    12 1   
    28    11    46 1   
    29    12    13 2   
    30    12    14 1   
    31    14    15 1   
    32    14    47 1   
    33    14    48 1   
    34    15    16 1   
    35    15    18 1   
    36    16    17 1   
    37    16    49 1   
    38    16    50 1   
    39    17    20 1   
    40    17    51 1   
    41    17    52 1   
    42    18    19 1   
    43    18    53 1   
    44    18    54 1   
    45    19    20 1   
    46    19    55 1   
    47    19    56 1   
    48    20    21 1   
    49    21    22 1   
    50    21    57 1   
    51    21    58 1   
    52    22    23 ar  
    53    22    30 ar  
    54    23    24 ar  
    55    23    59 1   
    56    24    25 1   
    57    24    28 ar  
    58    25    26 1   
    59    26    27 1   
    60    26    60 1   
    61    26    61 1   
    62    27    28 1   
    63    28    29 ar  
    64    29    30 ar  
    65    29    62 1   
    66    30    63 1   
@<TRIPOS>SUBSTRUCTURE
     1 1KV         1 TEMP              0 ****  ****    0 ROOT
