@<TRIPOS>MOLECULE
1KV
   63    66     1     0     0
SMALL
abcg2


@<TRIPOS>ATOM
      1 CAB          4.1880    -1.6950     3.2920 c3         1 1KV       0.145900
      2 OAS          3.9090    -1.3860     1.9490 os         1 1KV      -0.446000
      3 CBB          4.9430    -0.7120     1.2760 c6         1 1KV       0.158300
      4 CAH          6.1400    -1.6100     0.9710 c6         1 1KV      -0.104400
      5 CAG          7.2080    -0.8720     0.1690 c6         1 1KV      -0.106400
      6 CAZ          6.6230    -0.3340    -1.1320 c6         1 1KV       0.173300
      7 OAR          7.5490     0.4190    -1.8830 os         1 1KV      -0.454000
      8 CAA          8.5120    -0.3520    -2.5570 c3         1 1KV       0.147900
      9 CAO          5.4350     0.5680    -0.8360 c6         1 1KV      -0.096400
     10 CBA          4.3610    -0.1550    -0.0210 c6         1 1KV       0.118700
     11 NAQ          3.2480     0.7240     0.2670 ns         1 1KV      -0.501900
     12 C            2.1790     0.8660    -0.5320 c          1 1KV       0.598100
     13 O            1.9910     0.1920    -1.5330 o          1 1KV      -0.579100
     14 CA           1.2360     1.9850    -0.1080 c3         1 1KV       0.093800
     15 N           -0.1030     1.7790    -0.5850 n3         1 1KV      -0.702600
     16 CAK         -0.8950     2.9920    -0.5540 c6         1 1KV       0.168300
     17 CAM         -2.2510     2.7440    -1.1840 c6         1 1KV       0.163800
     18 CAJ         -0.7930     0.7180     0.1230 c6         1 1KV       0.168300
     19 CAL         -2.1510     0.4650    -0.4990 c6         1 1KV       0.163800
     20 NBD         -2.9520     1.6760    -0.4960 n3         1 1KV      -0.723600
     21 CAP         -4.2650     1.4600    -1.0620 c3         1 1KV       0.216100
     22 CAW         -5.1420     0.5710    -0.2170 ca         1 1KV      -0.084300
     23 CAF         -5.9770    -0.3630    -0.8480 ca         1 1KV      -0.096000
     24 CAY         -6.8030    -1.1160    -0.0510 ca         1 1KV       0.050100
     25 OAU         -7.7070    -2.0580    -0.4210 os         1 1KV      -0.346100
     26 CAI         -8.1580    -2.6660     0.7820 c5         1 1KV       0.373600
     27 OAT         -7.7370    -1.8320     1.8530 os         1 1KV      -0.346100
     28 CAX         -6.8190    -0.9800     1.3260 ca         1 1KV       0.050100
     29 CAE         -6.0050    -0.0800     1.9680 ca         1 1KV      -0.100000
     30 CAD         -5.1630     0.6990     1.1660 ca         1 1KV      -0.092000
     31 H1           4.5400    -0.8180     3.8480 h1         1 1KV       0.029033
     32 H2           3.2620    -2.0410     3.7510 h1         1 1KV       0.029033
     33 H3           4.9360    -2.4870     3.4050 h1         1 1KV       0.029033
     34 H4           5.2970     0.1360     1.8900 h1         1 1KV       0.028700
     35 H5           6.5780    -1.9810     1.8990 hc         1 1KV       0.052200
     36 H6           5.7940    -2.4870     0.4140 hc         1 1KV       0.052200
     37 H7           7.6050    -0.0360     0.7550 hc         1 1KV       0.049700
     38 H8           8.0420    -1.5500    -0.0240 hc         1 1KV       0.049700
     39 H9           6.2700    -1.1890    -1.7320 h1         1 1KV       0.038700
     40 H10          9.1200     0.3250    -3.1560 h1         1 1KV       0.028700
     41 H11          9.1790    -0.8930    -1.8780 h1         1 1KV       0.028700
     42 H12          8.0490    -1.0850    -3.2290 h1         1 1KV       0.028700
     43 H13          5.7740     1.4510    -0.2820 hc         1 1KV       0.061200
     44 H14          4.9920     0.9220    -1.7700 hc         1 1KV       0.061200
     45 H15          3.9770    -0.9940    -0.6070 h1         1 1KV       0.092700
     46 H16          3.3390     1.3480     1.0540 hn         1 1KV       0.307500
     47 H17          1.2910     2.1340     0.9830 h1         1 1KV       0.043200
     48 H18          1.6310     2.9040    -0.5570 h1         1 1KV       0.043200
     49 H20         -1.0360     3.3690     0.4740 h1         1 1KV       0.039200
     50 H21         -0.3790     3.7730    -1.1170 h1         1 1KV       0.039200
     51 H22         -2.8480     3.6570    -1.1250 h1         1 1KV       0.043700
     52 H23         -2.1110     2.5160    -2.2540 h1         1 1KV       0.043700
     53 H24         -0.2080    -0.2020     0.0720 h1         1 1KV       0.039200
     54 H25         -0.9210     0.9640     1.1920 h1         1 1KV       0.039200
     55 H26         -2.0110     0.0800    -1.5240 h1         1 1KV       0.043700
     56 H27         -2.6660    -0.3100     0.0700 h1         1 1KV       0.043700
     57 H29         -4.7490     2.4380    -1.1630 h1         1 1KV       0.040200
     58 H30         -4.2080     1.0470    -2.0840 h1         1 1KV       0.040200
     59 H31         -5.9680    -0.4830    -1.9240 ha         1 1KV       0.132000
     60 H32         -9.2450    -2.7360     0.7740 h2         1 1KV       0.062700
     61 H33         -7.7110    -3.6610     0.8860 h2         1 1KV       0.062700
     62 H34         -6.0130     0.0290     3.0440 ha         1 1KV       0.132000
     63 H35         -4.4990     1.4120     1.6370 ha         1 1KV       0.134000
@<TRIPOS>BOND
     1     1     2 1   
     2     1    31 1   
     3     1    32 1   
     4     1    33 1   
     5     2     3 1   
     6     3     4 1   
     7     3    10 1   
     8     3    34 1   
     9     4     5 1   
    10     4    35 1   
    11     4    36 1   
    12     5     6 1   
    13     5    37 1   
    14     5    38 1   
    15     6     7 1   
    16     6     9 1   
    17     6    39 1   
    18     7     8 1   
    19     8    40 1   
    20     8    41 1   
    21     8    42 1   
    22     9    10 1   
    23     9    43 1   
    24     9    44 1   
    25    10    11 1   
    26    10    45 1   
    27    11    12 1   
    28    11    46 1   
    29    12    13 2   
    30    12    14 1   
    31    14    15 1   
    32    14    47 1   
    33    14    48 1   
    34    15    16 1   
    35    15    18 1   
    36    16    17 1   
    37    16    49 1   
    38    16    50 1   
    39    17    20 1   
    40    17    51 1   
    41    17    52 1   
    42    18    19 1   
    43    18    53 1   
    44    18    54 1   
    45    19    20 1   
    46    19    55 1   
    47    19    56 1   
    48    20    21 1   
    49    21    22 1   
    50    21    57 1   
    51    21    58 1   
    52    22    23 ar  
    53    22    30 ar  
    54    23    24 ar  
    55    23    59 1   
    56    24    25 1   
    57    24    28 ar  
    58    25    26 1   
    59    26    27 1   
    60    26    60 1   
    61    26    61 1   
    62    27    28 1   
    63    28    29 ar  
    64    29    30 ar  
    65    29    62 1   
    66    30    63 1   
@<TRIPOS>SUBSTRUCTURE
     1 1KV         1 TEMP              0 ****  ****    0 ROOT
