@<TRIPOS>MOLECULE
1KX
   39    42     1     0     0
SMALL
abcg2


@<TRIPOS>ATOM
      1 C           -5.8490     1.8960     0.0890 cx         1 1KX      -0.133900
      2 N           -3.4640     1.2550     0.4210 nu         1 1KX      -0.895100
      3 O            6.6930     0.7100     0.4390 oh         1 1KX      -0.661000
      4 C01         -0.2860    -0.3950    -0.0880 ca         1 1KX       0.165500
      5 N01         -0.5910    -1.6880    -0.0830 nb         1 1KX      -0.292000
      6 C02         -1.1620     0.6670     0.0770 ca         1 1KX      -0.140600
      7 N02         -0.4950     1.8660     0.0110 nc         1 1KX      -0.548100
      8 C03          0.7450     1.5310    -0.1890 cd         1 1KX       0.392700
      9 N03          0.9390     0.1760    -0.2620 na         1 1KX      -0.280300
     10 C04          2.1970    -0.5140    -0.4740 c5         1 1KX       0.120500
     11 N04         -2.8490    -0.9650     0.2740 nb         1 1KX      -0.341000
     12 C05          3.0240     0.1020    -1.5690 c2         1 1KX      -0.260200
     13 N05         -2.3240    -3.1820     0.0770 nv         1 1KX      -1.046900
     14 C06          4.3000     0.2040    -1.2200 c2         1 1KX      -0.187200
     15 C07          4.5580    -0.3060     0.1700 c5         1 1KX      -0.046500
     16 C08          5.4140     0.6150     1.0210 c3         1 1KX       0.171600
     17 C09          3.1400    -0.4810     0.7440 c5         1 1KX      -0.095400
     18 C10         -2.5150     0.3200     0.2610 ca         1 1KX       0.480900
     19 C11         -1.8940    -1.8930     0.1000 ca         1 1KX       0.418900
     20 C12         -4.8360     0.9520     0.6490 cx         1 1KX       0.177500
     21 C13         -5.6880     0.5300    -0.5050 cx         1 1KX      -0.133900
     22 H           -6.7260     2.1020     0.6890 hc         1 1KX       0.078200
     23 HA          -5.4890     2.7430    -0.4830 hc         1 1KX       0.078200
     24 HN          -3.1610     2.2120     0.5090 hn         1 1KX       0.518000
     25 H03          1.5670     2.2220    -0.2980 h5         1 1KX       0.065800
     26 H04          1.9280    -1.5410    -0.7340 h1         1 1KX       0.101700
     27 H05          2.6020     0.3670    -2.5310 ha         1 1KX       0.202000
     28 HN05        -1.6330    -3.9000     0.2150 hn         1 1KX       0.482500
     29 HN0A        -3.2300    -3.3700     0.4700 hn         1 1KX       0.482500
     30 H06          5.0880     0.5710    -1.8650 ha         1 1KX       0.202000
     31 H07          5.0620    -1.2780     0.1090 hc         1 1KX       0.077700
     32 H09          2.8900     0.3790     1.3720 hc         1 1KX       0.058200
     33 H09A         3.0420    -1.3690     1.3680 hc         1 1KX       0.058200
     34 H12         -5.0610     0.5050     1.6130 h1         1 1KX       0.086700
     35 H13         -6.4540    -0.2110    -0.3230 hc         1 1KX       0.078200
     36 H13A        -5.2070     0.4550    -1.4720 hc         1 1KX       0.078200
     37 H16          7.2070     1.3520     0.9380 ho         1 1KX       0.445000
     38 H08          5.4640     0.2150     2.0430 h1         1 1KX       0.021200
     39 H18          4.9220     1.5960     1.0860 h1         1 1KX       0.021200
@<TRIPOS>BOND
     1     1    20 1   
     2     1    21 1   
     3     1    22 1   
     4     1    23 1   
     5     2    18 1   
     6     2    20 1   
     7     2    24 1   
     8     3    16 1   
     9     3    37 1   
    10     4     5 ar  
    11     4     6 ar  
    12     4     9 1   
    13     5    19 ar  
    14     6     7 1   
    15     6    18 ar  
    16     7     8 2   
    17     8     9 1   
    18     8    25 1   
    19     9    10 1   
    20    10    12 1   
    21    10    17 1   
    22    10    26 1   
    23    11    18 ar  
    24    11    19 ar  
    25    12    14 2   
    26    12    27 1   
    27    13    19 1   
    28    13    28 1   
    29    13    29 1   
    30    14    15 1   
    31    14    30 1   
    32    15    16 1   
    33    15    17 1   
    34    15    31 1   
    35    16    38 1   
    36    16    39 1   
    37    17    32 1   
    38    17    33 1   
    39    20    21 1   
    40    20    34 1   
    41    21    35 1   
    42    21    36 1   
@<TRIPOS>SUBSTRUCTURE
     1 1KX         1 TEMP              0 ****  ****    0 ROOT
