@<TRIPOS>MOLECULE
1KX
   39    42     1     0     0
SMALL
No Charge or Current Charge


@<TRIPOS>ATOM
      1 C           -5.9230     1.9830     0.1560 cx         1 1KX      -0.133900
      2 N           -3.5690     1.1250     0.3820 nu         1 1KX      -0.895100
      3 O            6.9130     0.4840     0.4180 oh         1 1KX      -0.661000
      4 C01         -0.2920    -0.4410    -0.1070 ca         1 1KX       0.165500
      5 N01         -0.6140    -1.7460    -0.0260 nb         1 1KX      -0.292000
      6 C02         -1.2350     0.5480     0.0220 ca         1 1KX      -0.140600
      7 N02         -0.6900     1.8220    -0.0900 nc         1 1KX      -0.548100
      8 C03          0.6140     1.5490    -0.2900 cd         1 1KX       0.392700
      9 N03          0.9160     0.1740    -0.3120 na         1 1KX      -0.280300
     10 C04          2.2310    -0.4380    -0.4900 c5         1 1KX       0.120500
     11 N04         -2.9210    -1.1330     0.3280 nb         1 1KX      -0.341000
     12 C05          3.0650     0.2270    -1.5630 c2         1 1KX      -0.260200
     13 N05         -2.2540    -3.3120     0.2710 nv         1 1KX      -1.046900
     14 C06          4.3430     0.3470    -1.2020 c2         1 1KX      -0.187200
     15 C07          4.5900    -0.2570     0.1630 c5         1 1KX      -0.046500
     16 C08          5.6180     0.5120     1.0310 c3         1 1KX       0.171600
     17 C09          3.1500    -0.3040     0.7710 c5         1 1KX      -0.095400
     18 C10         -2.5750     0.1640     0.2430 ca         1 1KX       0.480900
     19 C11         -1.9150    -2.0070     0.1850 ca         1 1KX       0.418900
     20 C12         -4.9700     0.9050     0.6070 cx         1 1KX       0.177500
     21 C13         -5.8410     0.6820    -0.6030 cx         1 1KX      -0.133900
     22 H           -6.8050     2.1600     0.7660 hc         1 1KX       0.078200
     23 HA          -5.5100     2.8710    -0.3170 hc         1 1KX       0.078200
     24 HN          -3.1940     2.0730     0.3140 hn         1 1KX       0.518000
     25 H03          1.3950     2.2900    -0.4230 h5         1 1KX       0.065800
     26 H04          2.1040    -1.5020    -0.7400 h1         1 1KX       0.101700
     27 H05          2.6710     0.5770    -2.5200 ha         1 1KX       0.202000
     28 HN05        -1.5110    -3.9950     0.3960 hn         1 1KX       0.482500
     29 HN0A        -3.1680    -3.5510     0.6470 hn         1 1KX       0.482500
     30 H06          5.1160     0.8020    -1.8280 ha         1 1KX       0.202000
     31 H07          4.9830    -1.2740     0.0430 hc         1 1KX       0.077700
     32 H09          2.9320     0.6260     1.3100 hc         1 1KX       0.058200
     33 H09A         3.0120    -1.1260     1.4830 hc         1 1KX       0.058200
     34 H12         -5.2170     0.3580     1.5210 h1         1 1KX       0.086700
     35 H13         -6.6670    -0.0180    -0.5040 hc         1 1KX       0.078200
     36 H13A        -5.3670     0.6910    -1.5810 hc         1 1KX       0.078200
     37 H16          7.5170     0.9880     1.0070 ho         1 1KX       0.445000
     38 H08          5.6600     0.0480     2.0250 h1         1 1KX       0.021200
     39 H18          5.2770     1.5480     1.1570 h1         1 1KX       0.021200
@<TRIPOS>BOND
     1     1    20 1   
     2     1    21 1   
     3     1    22 1   
     4     1    23 1   
     5     2    18 1   
     6     2    20 1   
     7     2    24 1   
     8     3    16 1   
     9     3    37 1   
    10     4     5 ar  
    11     4     6 ar  
    12     4     9 1   
    13     5    19 ar  
    14     6     7 1   
    15     6    18 ar  
    16     7     8 2   
    17     8     9 1   
    18     8    25 1   
    19     9    10 1   
    20    10    12 1   
    21    10    17 1   
    22    10    26 1   
    23    11    18 ar  
    24    11    19 ar  
    25    12    14 2   
    26    12    27 1   
    27    13    19 1   
    28    13    28 1   
    29    13    29 1   
    30    14    15 1   
    31    14    30 1   
    32    15    16 1   
    33    15    17 1   
    34    15    31 1   
    35    16    38 1   
    36    16    39 1   
    37    17    32 1   
    38    17    33 1   
    39    20    21 1   
    40    20    34 1   
    41    21    35 1   
    42    21    36 1   
@<TRIPOS>SUBSTRUCTURE
     1 1KX         1 TEMP              0 ****  ****    0 ROOT
