@<TRIPOS>MOLECULE
1KY
   63    67     1     0     0
SMALL
bcc


@<TRIPOS>ATOM
      1 C           -0.9650     2.5370     1.4930 c          1 1KY       0.723500
      2 N            0.1950     0.7570     0.3130 n3         1 1KY      -0.769500
      3 O           -1.4400     2.9540     2.5390 o          1 1KY      -0.626500
      4 CA           0.1580     1.5110     1.5570 c6         1 1KY       0.150500
      5 CB           1.4890     2.2260     1.8190 c6         1 1KY      -0.093400
      6 CAA         -7.5380    -2.4310    -2.2410 c3         1 1KY       0.123700
      7 CAB         -3.6310    -2.8570     1.4610 c3         1 1KY       0.116700
      8 OAD          8.0290    -1.7360    -0.6360 o          1 1KY      -0.550500
      9 OAE         -0.2280    -1.4150     1.4430 o          1 1KY      -0.606800
     10 OAF          0.0800    -1.3060    -1.0560 o          1 1KY      -0.606800
     11 CAG         -5.5650     1.0680    -0.9810 ca         1 1KY      -0.211000
     12 CAH         -6.2340    -0.0800    -1.4160 ca         1 1KY      -0.158000
     13 CAI          2.6930    -1.3460     1.7600 ca         1 1KY       0.002000
     14 CAJ          4.0530    -1.5230     1.9410 ca         1 1KY      -0.172000
     15 CAK         -4.2350    -0.3030     0.4840 ca         1 1KY      -0.219000
     16 CAL          2.9930    -1.1370    -0.6430 ca         1 1KY       0.033000
     17 CAM          1.8480     3.1470     0.6590 c6         1 1KY      -0.074400
     18 CAN         -3.6990     3.1430    -0.3420 c3         1 1KY       0.118400
     19 CAO          1.7510     2.4020    -0.6680 c6         1 1KY      -0.096400
     20 CAQ         -2.4620     3.8780     0.1530 c3         1 1KY       0.088000
     21 CAR         -0.8080     2.4700    -0.9810 c6         1 1KY       0.108000
     22 NAS          6.2410    -1.6640     0.8090 ns         1 1KY      -0.459100
     23 OAT         -6.5140    -2.4880    -1.2710 os         1 1KY      -0.296900
     24 OAU         -4.6420    -2.6830     0.4890 os         1 1KY      -0.298900
     25 OAV         -3.8720     2.0000     0.4700 os         1 1KY      -0.318900
     26 SAW          5.6060    -1.3430    -1.6570 ss         1 1KY      -0.137500
     27 CAY         -4.5710     0.9540    -0.0300 ca         1 1KY       0.134100
     28 CAZ          2.1760    -1.1490     0.4820 ca         1 1KY      -0.327500
     29 CBA         -5.9230    -1.3280    -0.9120 ca         1 1KY       0.080100
     30 CBB         -4.9020    -1.4370     0.0570 ca         1 1KY       0.151100
     31 CBC          6.8530    -1.6170    -0.4070 c          1 1KY       0.725100
     32 CBD          4.8800    -1.5020     0.8280 ca         1 1KY       0.102600
     33 CBE          4.3480    -1.3100    -0.4510 ca         1 1KY      -0.080100
     34 CBF          0.4470     1.6220    -0.8350 c6         1 1KY       0.223500
     35 NBH         -1.3200     2.9940     0.2760 n          1 1KY      -0.454800
     36 SBJ          0.4410    -0.8590     0.2780 sy         1 1KY       1.338200
     37 HA          -0.0790     0.8420     2.3830 h1         1 1KY       0.109700
     38 HB           1.4230     2.7790     2.7570 hc         1 1KY       0.058700
     39 HBA          2.2680     1.4700     1.9540 hc         1 1KY       0.058700
     40 HAA         -8.3830    -1.8210    -1.9110 h1         1 1KY       0.036700
     41 HAAA        -7.1780    -2.0400    -3.1970 h1         1 1KY       0.036700
     42 HAAB        -7.8820    -3.4520    -2.3890 h1         1 1KY       0.036700
     43 HAB         -2.6540    -2.5270     1.1010 h1         1 1KY       0.047033
     44 HABA        -3.8610    -2.3250     2.3880 h1         1 1KY       0.047033
     45 HABB        -3.5870    -3.9230     1.6720 h1         1 1KY       0.047033
     46 HAG         -5.8490     2.0270    -1.3930 ha         1 1KY       0.132000
     47 HAH         -7.0090     0.0350    -2.1610 ha         1 1KY       0.134000
     48 HAI          2.0400    -1.3690     2.6210 ha         1 1KY       0.161000
     49 HAJ          4.4580    -1.6830     2.9310 ha         1 1KY       0.148000
     50 HAK         -3.4330    -0.3630     1.2080 ha         1 1KY       0.159000
     51 HAL          2.5920    -1.0020    -1.6380 ha         1 1KY       0.165000
     52 HAM          1.1910     4.0210     0.6530 hc         1 1KY       0.053200
     53 HAMA         2.8610     3.5310     0.7900 hc         1 1KY       0.053200
     54 HAN         -4.5620     3.8150    -0.2870 h1         1 1KY       0.037200
     55 HANA        -3.5840     2.8510    -1.3910 h1         1 1KY       0.037200
     56 HAO          1.8580     3.0920    -1.5080 hc         1 1KY       0.050700
     57 HAOA         2.5810     1.6930    -0.7440 hc         1 1KY       0.050700
     58 HAQ         -2.2290     4.6750    -0.5570 h1         1 1KY       0.070700
     59 HAQA        -2.6530     4.3450     1.1160 h1         1 1KY       0.070700
     60 HAR         -0.6080     3.3080    -1.6530 h1         1 1KY       0.050700
     61 HARA        -1.5760     1.8530    -1.4570 h1         1 1KY       0.050700
     62 HNAS         6.7880    -1.8230     1.6450 hn         1 1KY       0.350500
     63 HBF          0.5130     1.0180    -1.7400 h1         1 1KY       0.084700
@<TRIPOS>BOND
     1     1     3 2   
     2     1     4 1   
     3     1    35 1   
     4     2     4 1   
     5     2    34 1   
     6     2    36 1   
     7     4     5 1   
     8     4    37 1   
     9     5    17 1   
    10     5    38 1   
    11     5    39 1   
    12     6    23 1   
    13     6    40 1   
    14     6    41 1   
    15     6    42 1   
    16     7    24 1   
    17     7    43 1   
    18     7    44 1   
    19     7    45 1   
    20     8    31 2   
    21     9    36 2   
    22    10    36 2   
    23    11    12 ar  
    24    11    27 ar  
    25    11    46 1   
    26    12    29 ar  
    27    12    47 1   
    28    13    14 ar  
    29    13    28 ar  
    30    13    48 1   
    31    14    32 ar  
    32    14    49 1   
    33    15    27 ar  
    34    15    30 ar  
    35    15    50 1   
    36    16    28 ar  
    37    16    33 ar  
    38    16    51 1   
    39    17    19 1   
    40    17    52 1   
    41    17    53 1   
    42    18    20 1   
    43    18    25 1   
    44    18    54 1   
    45    18    55 1   
    46    19    34 1   
    47    19    56 1   
    48    19    57 1   
    49    20    35 1   
    50    20    58 1   
    51    20    59 1   
    52    21    34 1   
    53    21    35 1   
    54    21    60 1   
    55    21    61 1   
    56    22    31 1   
    57    22    32 1   
    58    22    62 1   
    59    23    29 1   
    60    24    30 1   
    61    25    27 1   
    62    26    31 1   
    63    26    33 1   
    64    28    36 1   
    65    29    30 ar  
    66    32    33 ar  
    67    34    63 1   
@<TRIPOS>SUBSTRUCTURE
     1 1KY         1 TEMP              0 ****  ****    0 ROOT
