@<TRIPOS>MOLECULE
1KY
   63    67     1     0     0
SMALL
No Charge or Current Charge


@<TRIPOS>ATOM
      1 C            0.6650     2.0040     0.9130 c          1 1KY       0.581000
      2 N            1.4840     0.0330    -0.4030 n3         1 1KY      -0.769500
      3 O            0.8660     2.5190     2.0080 o          1 1KY      -0.551000
      4 CA           1.8350     1.4140     0.0670 c6         1 1KY       0.150500
      5 CB           2.1610     2.3100    -1.1730 c6         1 1KY      -0.093400
      6 CAA         -9.5460    -0.0470    -1.9090 c3         1 1KY       0.146900
      7 CAB         -6.0340    -3.5420     0.7320 c3         1 1KY       0.139900
      8 OAD          8.6680     0.8850     3.9290 o          1 1KY      -0.475000
      9 OAE          2.1310    -2.4030    -0.6060 o          1 1KY      -0.536000
     10 OAF          3.3450    -0.6560    -2.0460 o          1 1KY      -0.536000
     11 CAG         -5.7810     1.4550    -0.4450 ca         1 1KY      -0.193000
     12 CAH         -7.0140     0.9850    -0.9300 ca         1 1KY      -0.140000
     13 CAI          3.5270    -1.2740     1.8690 ca         1 1KY       0.020000
     14 CAJ          4.4080    -1.0640     2.9490 ca         1 1KY      -0.154000
     15 CAK         -5.2550    -0.7660     0.3940 ca         1 1KY      -0.201000
     16 CAL          5.0960    -0.1530     0.3460 ca         1 1KY       0.051000
     17 CAM          1.0250     2.3430    -2.2250 c6         1 1KY      -0.074400
     18 CAN         -3.1960     2.3330     0.5550 c3         1 1KY       0.141600
     19 CAO          0.5450     0.9110    -2.5600 c6         1 1KY      -0.096400
     20 CAQ         -1.7820     2.4340     1.1780 c3         1 1KY       0.088000
     21 CAR         -0.9440     0.6460    -0.4860 c6         1 1KY       0.108000
     22 NAS          6.6090    -0.0950     3.6200 ns         1 1KY      -0.505600
     23 OAT         -8.5850    -0.8670    -1.2210 os         1 1KY      -0.320100
     24 OAU         -6.8680    -2.5740     0.0700 os         1 1KY      -0.322100
     25 OAV         -3.6780     0.9850     0.7110 os         1 1KY      -0.342100
     26 SAW          7.5480     0.8630     1.4030 ss         1 1KY      -0.010600
     27 CAY         -4.9000     0.5780     0.2190 ca         1 1KY       0.134100
     28 CAZ          3.8710    -0.8220     0.5720 ca         1 1KY      -0.327500
     29 CBA         -7.3780    -0.3700    -0.7560 ca         1 1KY       0.080100
     30 CBB         -6.4920    -1.2500    -0.0890 ca         1 1KY       0.151100
     31 CBC          7.7350     0.5670     3.2080 c          1 1KY       0.582600
     32 CBD          5.6140    -0.4020     2.7010 ca         1 1KY       0.102600
     33 CBE          5.9540     0.0440     1.4380 ca         1 1KY      -0.207000
     34 CBF          0.2800     0.0690    -1.2760 c6         1 1KY       0.223500
     35 NBH         -0.6530     1.8010     0.4320 n          1 1KY      -0.387800
     36 SBJ          2.7240    -1.0740    -0.7850 sy         1 1KY       1.196600
     37 HA           2.6980     1.4100     0.7470 h1         1 1KY       0.109700
     38 HB           2.3750     3.3330    -0.8360 hc         1 1KY       0.058700
     39 HBA          3.0860     1.9580    -1.6470 hc         1 1KY       0.058700
     40 HAA         -9.8830     0.7780    -1.2690 h1         1 1KY       0.036700
     41 HAAA        -9.1140     0.3710    -2.8280 h1         1 1KY       0.036700
     42 HAAB       -10.4240    -0.6430    -2.1870 h1         1 1KY       0.036700
     43 HAB         -5.0740    -3.6510     0.2120 h1         1 1KY       0.047033
     44 HABA        -5.8410    -3.2450     1.7710 h1         1 1KY       0.047033
     45 HABB        -6.5260    -4.5220     0.7450 h1         1 1KY       0.047033
     46 HAG         -5.5300     2.5020    -0.5930 ha         1 1KY       0.114000
     47 HAH         -7.6720     1.6860    -1.4370 ha         1 1KY       0.116000
     48 HAI          2.5780    -1.7800     2.0420 ha         1 1KY       0.143000
     49 HAJ          4.1520    -1.4060     3.9480 ha         1 1KY       0.130000
     50 HAK         -4.5560    -1.4170     0.9090 ha         1 1KY       0.141000
     51 HAL          5.3750     0.2080    -0.6430 ha         1 1KY       0.147000
     52 HAM          0.1850     2.9480    -1.8560 hc         1 1KY       0.053200
     53 HAMA         1.3760     2.8430    -3.1390 hc         1 1KY       0.053200
     54 HAN         -3.8620     3.0320     1.0770 h1         1 1KY       0.037200
     55 HANA        -3.1530     2.6220    -0.5030 h1         1 1KY       0.037200
     56 HAO         -0.3670     0.9600    -3.1700 hc         1 1KY       0.050700
     57 HAOA         1.2910     0.4110    -3.1890 hc         1 1KY       0.050700
     58 HAQ         -1.5500     3.5010     1.2910 h1         1 1KY       0.070700
     59 HAQA        -1.8180     2.0060     2.1890 h1         1 1KY       0.070700
     60 HAR         -1.7290     0.9220    -1.2020 h1         1 1KY       0.050700
     61 HARA        -1.3480    -0.1680     0.1320 h1         1 1KY       0.050700
     62 HNAS         6.5180    -0.3530     4.5960 hn         1 1KY       0.464000
     63 HBF          0.0050    -0.9490    -1.5920 h1         1 1KY       0.084700
@<TRIPOS>BOND
     1     1     3 2   
     2     1     4 1   
     3     1    35 1   
     4     2     4 1   
     5     2    34 1   
     6     2    36 1   
     7     4     5 1   
     8     4    37 1   
     9     5    17 1   
    10     5    38 1   
    11     5    39 1   
    12     6    23 1   
    13     6    40 1   
    14     6    41 1   
    15     6    42 1   
    16     7    24 1   
    17     7    43 1   
    18     7    44 1   
    19     7    45 1   
    20     8    31 2   
    21     9    36 2   
    22    10    36 2   
    23    11    12 ar  
    24    11    27 ar  
    25    11    46 1   
    26    12    29 ar  
    27    12    47 1   
    28    13    14 ar  
    29    13    28 ar  
    30    13    48 1   
    31    14    32 ar  
    32    14    49 1   
    33    15    27 ar  
    34    15    30 ar  
    35    15    50 1   
    36    16    28 ar  
    37    16    33 ar  
    38    16    51 1   
    39    17    19 1   
    40    17    52 1   
    41    17    53 1   
    42    18    20 1   
    43    18    25 1   
    44    18    54 1   
    45    18    55 1   
    46    19    34 1   
    47    19    56 1   
    48    19    57 1   
    49    20    35 1   
    50    20    58 1   
    51    20    59 1   
    52    21    34 1   
    53    21    35 1   
    54    21    60 1   
    55    21    61 1   
    56    22    31 1   
    57    22    32 1   
    58    22    62 1   
    59    23    29 1   
    60    24    30 1   
    61    25    27 1   
    62    26    31 1   
    63    26    33 1   
    64    28    36 1   
    65    29    30 ar  
    66    32    33 ar  
    67    34    63 1   
@<TRIPOS>SUBSTRUCTURE
     1 1KY         1 TEMP              0 ****  ****    0 ROOT
