@<TRIPOS>MOLECULE
1KZ
   61    64     1     0     0
SMALL
No Charge or Current Charge


@<TRIPOS>ATOM
      1 CAB         -3.5210     0.8280    -4.4020 c3         1 1KZ       0.144900
      2 OAU         -4.6580     0.2080    -3.7770 os         1 1KZ      -0.318100
      3 CBC         -4.5930    -0.3710    -2.5200 ca         1 1KZ       0.149100
      4 CAK         -3.4000    -0.3660    -1.7630 ca         1 1KZ      -0.208000
      5 CBB         -5.7560    -0.9800    -1.9920 ca         1 1KZ       0.078100
      6 OAT         -6.9150    -0.9730    -2.7530 os         1 1KZ      -0.321100
      7 CAA         -8.1430    -1.5670    -2.2970 c3         1 1KZ       0.145900
      8 CAH         -5.7100    -1.5770    -0.7110 ca         1 1KZ      -0.133000
      9 CAG         -4.5160    -1.5680     0.0320 ca         1 1KZ      -0.200000
     10 CAZ         -3.3570    -0.9640    -0.4960 ca         1 1KZ       0.146100
     11 OAW         -2.1590    -0.9350     0.1860 os         1 1KZ      -0.343100
     12 CAP         -2.0470    -1.3590     1.5590 c3         1 1KZ       0.159600
     13 CAO         -0.5820    -1.1970     2.0170 c3         1 1KZ       0.165600
     14 OAV         -0.2230     0.1980     1.9470 os         1 1KZ      -0.415100
     15 C            1.0010     0.5820     2.4380 c          1 1KZ       0.593100
     16 O            1.7710    -0.1970     2.9900 o          1 1KZ      -0.486000
     17 CA           1.3610     2.0920     2.1820 c6         1 1KZ       0.163500
     18 CB           0.0630     2.9590     2.1860 c6         1 1KZ      -0.075400
     19 CAM          0.3830     4.4670     2.1550 c6         1 1KZ      -0.073400
     20 CAN          1.2600     4.7800     0.9280 c6         1 1KZ      -0.080400
     21 CAR          2.5200     3.8860     0.9050 c6         1 1KZ       0.209800
     22 N            2.1800     2.4350     0.9440 n3         1 1KZ      -0.734500
     23 S1           3.5190     1.4290     0.5910 sy         1 1KZ       1.146600
     24 OAE          4.1610     2.0210    -0.5870 o          1 1KZ      -0.544000
     25 OAF          4.2670     1.2260     1.8360 o          1 1KZ      -0.544000
     26 CBA          2.7670    -0.0990     0.0280 ca         1 1KZ      -0.269500
     27 CAL          1.7780    -0.0480    -0.9770 ca         1 1KZ       0.060000
     28 CBF          1.2130    -1.2540    -1.4160 ca         1 1KZ      -0.202000
     29 SAX         -0.0480    -1.4430    -2.6730 ss         1 1KZ      -0.018600
     30 CBD         -0.0350    -3.2610    -2.4100 c          1 1KZ       0.584600
     31 OAD         -0.7030    -4.1080    -2.9820 o          1 1KZ      -0.482000
     32 NAS          0.9040    -3.5150    -1.4470 ns         1 1KZ      -0.507600
     33 CBE          1.6090    -2.4630    -0.8760 ca         1 1KZ       0.102600
     34 CAJ          2.5930    -2.5410     0.1130 ca         1 1KZ      -0.152000
     35 CAI          3.1830    -1.3430     0.5650 ca         1 1KZ       0.038000
     36 H1          -3.1560     1.6700    -3.8000 h1         1 1KZ       0.041033
     37 H2          -2.7040     0.1060    -4.5300 h1         1 1KZ       0.041033
     38 H3          -3.7940     1.2120    -5.3920 h1         1 1KZ       0.041033
     39 H4          -2.4980     0.1030    -2.1370 ha         1 1KZ       0.132000
     40 H5          -8.0120    -2.6410    -2.1110 h1         1 1KZ       0.038033
     41 H6          -8.4880    -1.0880    -1.3720 h1         1 1KZ       0.038033
     42 H7          -8.9270    -1.4470    -3.0550 h1         1 1KZ       0.038033
     43 H8          -6.5860    -2.0520    -0.2770 ha         1 1KZ       0.118000
     44 H9          -4.5110    -2.0390     1.0110 ha         1 1KZ       0.118000
     45 H10         -2.6990    -0.7580     2.2060 h1         1 1KZ       0.049200
     46 H11         -2.3310    -2.4140     1.6620 h1         1 1KZ       0.049200
     47 H12         -0.4960    -1.5700     3.0460 h1         1 1KZ       0.062700
     48 H13          0.0710    -1.8030     1.3770 h1         1 1KZ       0.062700
     49 H14          1.9410     2.3690     3.0750 h1         1 1KZ       0.079700
     50 H15         -0.5620     2.7010     1.3190 hc         1 1KZ       0.062700
     51 H16         -0.5340     2.7340     3.0810 hc         1 1KZ       0.062700
     52 H17         -0.5460     5.0520     2.1150 hc         1 1KZ       0.048200
     53 H18          0.9050     4.7600     3.0760 hc         1 1KZ       0.048200
     54 H19          0.6830     4.6200     0.0070 hc         1 1KZ       0.054700
     55 H20          1.5540     5.8380     0.9350 hc         1 1KZ       0.054700
     56 H21          3.0770     4.1410    -0.0080 h1         1 1KZ       0.057200
     57 H22          3.1660     4.1490     1.7560 h1         1 1KZ       0.057200
     58 H25          1.4570     0.9020    -1.4020 ha         1 1KZ       0.135000
     59 H26          1.0760    -4.4740    -1.1660 hn         1 1KZ       0.461000
     60 H27          2.8970    -3.4990     0.5270 ha         1 1KZ       0.127000
     61 H28          3.9510    -1.3840     1.3360 ha         1 1KZ       0.142000
@<TRIPOS>BOND
     1     1     2 1   
     2     1    36 1   
     3     1    37 1   
     4     1    38 1   
     5     2     3 1   
     6     3     4 ar  
     7     3     5 ar  
     8     4    10 ar  
     9     4    39 1   
    10     5     6 1   
    11     5     8 ar  
    12     6     7 1   
    13     7    40 1   
    14     7    41 1   
    15     7    42 1   
    16     8     9 ar  
    17     8    43 1   
    18     9    10 ar  
    19     9    44 1   
    20    10    11 1   
    21    11    12 1   
    22    12    13 1   
    23    12    45 1   
    24    12    46 1   
    25    13    14 1   
    26    13    47 1   
    27    13    48 1   
    28    14    15 1   
    29    15    16 2   
    30    15    17 1   
    31    17    18 1   
    32    17    22 1   
    33    17    49 1   
    34    18    19 1   
    35    18    50 1   
    36    18    51 1   
    37    19    20 1   
    38    19    52 1   
    39    19    53 1   
    40    20    21 1   
    41    20    54 1   
    42    20    55 1   
    43    21    22 1   
    44    21    56 1   
    45    21    57 1   
    46    22    23 1   
    47    23    24 2   
    48    23    25 2   
    49    23    26 1   
    50    26    27 ar  
    51    26    35 ar  
    52    27    28 ar  
    53    27    58 1   
    54    28    29 1   
    55    28    33 ar  
    56    29    30 1   
    57    30    31 2   
    58    30    32 1   
    59    32    33 1   
    60    32    59 1   
    61    33    34 ar  
    62    34    35 ar  
    63    34    60 1   
    64    35    61 1   
@<TRIPOS>SUBSTRUCTURE
     1 1KZ         1 TEMP              0 ****  ****    0 ROOT
