@<TRIPOS>MOLECULE
1KZ
   61    64     1     0     0
SMALL
abcg2


@<TRIPOS>ATOM
      1 CAB         -7.0660     1.8370    -2.6160 c3         1 1KZ       0.144900
      2 OAU         -7.7070     1.1000    -1.5950 os         1 1KZ      -0.318100
      3 CBC         -6.9600     0.2740    -0.8420 ca         1 1KZ       0.149100
      4 CAK         -5.5980     0.0930    -0.9930 ca         1 1KZ      -0.208000
      5 CBB         -7.6580    -0.4360     0.1600 ca         1 1KZ       0.078100
      6 OAT         -8.9850    -0.1940     0.2320 os         1 1KZ      -0.321100
      7 CAA         -9.7240    -0.8840     1.2160 c3         1 1KZ       0.145900
      8 CAH         -6.9560    -1.3040     0.9690 ca         1 1KZ      -0.133000
      9 CAG         -5.5770    -1.4920     0.8200 ca         1 1KZ      -0.200000
     10 CAZ         -4.9010    -0.7910    -0.1600 ca         1 1KZ       0.146100
     11 OAW         -3.5730    -0.8870    -0.4020 os         1 1KZ      -0.343100
     12 CAP         -2.7950    -1.7130     0.4360 c3         1 1KZ       0.159600
     13 CAO         -1.3620    -1.6140    -0.0040 c3         1 1KZ       0.165600
     14 OAV         -0.9280    -0.2690     0.2210 os         1 1KZ      -0.415100
     15 C            0.2970     0.0520    -0.1550 c          1 1KZ       0.593100
     16 O            1.0810    -0.7120    -0.6550 o          1 1KZ      -0.486000
     17 CA           0.5450     1.5380     0.0100 c6         1 1KZ       0.163500
     18 CB           0.2260     2.1720    -1.3530 c6         1 1KZ      -0.075400
     19 CAM          0.5470     3.6560    -1.3720 c6         1 1KZ      -0.073400
     20 CAN          2.0010     3.8620    -0.9860 c6         1 1KZ      -0.080400
     21 CAR          2.2870     3.2500     0.3720 c6         1 1KZ       0.209800
     22 N            1.9360     1.8170     0.3800 n3         1 1KZ      -0.734500
     23 S1           2.5440     0.9290     1.6570 sy         1 1KZ       1.146600
     24 OAE          3.3590     1.8100     2.4800 o          1 1KZ      -0.544000
     25 OAF          1.4500     0.1940     2.2810 o          1 1KZ      -0.544000
     26 CBA          3.6490    -0.2380     0.9190 ca         1 1KZ      -0.269500
     27 CAL          4.7340     0.2520     0.2010 ca         1 1KZ       0.060000
     28 CBF          5.6230    -0.6650    -0.3170 ca         1 1KZ      -0.202000
     29 SAX          7.0600    -0.3590    -1.2560 ss         1 1KZ      -0.018600
     30 CBD          7.4120    -2.1060    -1.3660 c          1 1KZ       0.584600
     31 OAD          8.3610    -2.5730    -1.9410 o          1 1KZ      -0.482000
     32 NAS          6.4380    -2.7840    -0.6980 ns         1 1KZ      -0.507600
     33 CBE          5.4460    -2.0370    -0.1130 ca         1 1KZ       0.102600
     34 CAJ          4.3650    -2.5110     0.6130 ca         1 1KZ      -0.152000
     35 CAI          3.4610    -1.5970     1.1290 ca         1 1KZ       0.038000
     36 H1          -6.3000     2.5060    -2.2170 h1         1 1KZ       0.041033
     37 H2          -6.6090     1.1850    -3.3650 h1         1 1KZ       0.041033
     38 H3          -7.8370     2.4350    -3.0970 h1         1 1KZ       0.041033
     39 H4          -5.0440     0.6240    -1.7560 ha         1 1KZ       0.132000
     40 H5          -9.6800    -1.9680     1.0780 h1         1 1KZ       0.038033
     41 H6          -9.3820    -0.6470     2.2280 h1         1 1KZ       0.038033
     42 H7         -10.7580    -0.5610     1.1130 h1         1 1KZ       0.038033
     43 H8          -7.4600    -1.8640     1.7460 ha         1 1KZ       0.118000
     44 H9          -5.0790    -2.1870     1.4800 ha         1 1KZ       0.118000
     45 H10         -2.8940    -1.4160     1.4870 h1         1 1KZ       0.049200
     46 H11         -3.1030    -2.7620     0.3590 h1         1 1KZ       0.049200
     47 H12         -0.7600    -2.3110     0.5830 h1         1 1KZ       0.062700
     48 H13         -1.2580    -1.8760    -1.0590 h1         1 1KZ       0.062700
     49 H14         -0.1420     1.9490     0.7580 h1         1 1KZ       0.079700
     50 H15          0.8060     1.6620    -2.1260 hc         1 1KZ       0.062700
     51 H16         -0.8300     2.0010    -1.5680 hc         1 1KZ       0.062700
     52 H17          0.3460     4.0620    -2.3640 hc         1 1KZ       0.048200
     53 H18         -0.1040     4.1880    -0.6720 hc         1 1KZ       0.048200
     54 H19          2.6570     3.4160    -1.7380 hc         1 1KZ       0.054700
     55 H20          2.2460     4.9250    -0.9320 hc         1 1KZ       0.054700
     56 H21          3.3440     3.3600     0.6020 h1         1 1KZ       0.057200
     57 H22          1.7240     3.7890     1.1420 h1         1 1KZ       0.057200
     58 H25          4.8830     1.3110     0.0380 ha         1 1KZ       0.135000
     59 H26          6.4670    -3.7940    -0.6480 hn         1 1KZ       0.461000
     60 H27          4.2260    -3.5710     0.7720 ha         1 1KZ       0.127000
     61 H28          2.6100    -1.9560     1.6890 ha         1 1KZ       0.142000
@<TRIPOS>BOND
     1     1     2 1   
     2     1    36 1   
     3     1    37 1   
     4     1    38 1   
     5     2     3 1   
     6     3     4 ar  
     7     3     5 ar  
     8     4    10 ar  
     9     4    39 1   
    10     5     6 1   
    11     5     8 ar  
    12     6     7 1   
    13     7    40 1   
    14     7    41 1   
    15     7    42 1   
    16     8     9 ar  
    17     8    43 1   
    18     9    10 ar  
    19     9    44 1   
    20    10    11 1   
    21    11    12 1   
    22    12    13 1   
    23    12    45 1   
    24    12    46 1   
    25    13    14 1   
    26    13    47 1   
    27    13    48 1   
    28    14    15 1   
    29    15    16 2   
    30    15    17 1   
    31    17    18 1   
    32    17    22 1   
    33    17    49 1   
    34    18    19 1   
    35    18    50 1   
    36    18    51 1   
    37    19    20 1   
    38    19    52 1   
    39    19    53 1   
    40    20    21 1   
    41    20    54 1   
    42    20    55 1   
    43    21    22 1   
    44    21    56 1   
    45    21    57 1   
    46    22    23 1   
    47    23    24 2   
    48    23    25 2   
    49    23    26 1   
    50    26    27 ar  
    51    26    35 ar  
    52    27    28 ar  
    53    27    58 1   
    54    28    29 1   
    55    28    33 ar  
    56    29    30 1   
    57    30    31 2   
    58    30    32 1   
    59    32    33 1   
    60    32    59 1   
    61    33    34 ar  
    62    34    35 ar  
    63    34    60 1   
    64    35    61 1   
@<TRIPOS>SUBSTRUCTURE
     1 1KZ         1 TEMP              0 ****  ****    0 ROOT
