@<TRIPOS>MOLECULE
1L1
   33    33     1     0     0
SMALL
bcc


@<TRIPOS>ATOM
      1 C17         -1.7030    -2.0910     0.0170 c          1 1L1       0.923600
      2 C18         -0.6910    -0.9200     0.0750 c3         1 1L1       0.046500
      3 N19         -1.1260     0.1930    -0.7750 n7         1 1L1      -0.830100
      4 C20          0.6890    -1.3930    -0.3850 c3         1 1L1      -0.051400
      5 O21         -2.5290    -2.0680    -0.9170 o          1 1L1      -0.816800
      6 C22          4.4910     0.6200     0.4660 c6         1 1L1      -0.071400
      7 C23          4.1780     0.1990    -0.9660 c6         1 1L1      -0.073900
      8 C24          3.0590    -0.8380    -1.0090 c6         1 1L1      -0.071900
      9 C25          1.7900    -0.3380    -0.3140 c6         1 1L1      -0.062700
     10 C26          2.1220     0.0690     1.1220 c6         1 1L1      -0.071900
     11 C27          3.2340     1.1130     1.1760 c6         1 1L1      -0.073900
     12 S28         -1.9680     1.4180    -0.0610 s6         1 1L1       1.389800
     13 N29         -0.8410     2.3130     0.7310 n8         1 1L1      -0.927700
     14 O30         -2.4870     2.2190    -1.1550 o          1 1L1      -0.642300
     15 O31         -2.8880     0.9590     0.9680 o          1 1L1      -0.642300
     16 H15         -0.6190    -0.5810     1.1120 h1         1 1L1       0.036700
     17 H16         -1.6870    -0.1850    -1.5400 hn         1 1L1       0.452800
     18 H17          0.9760    -2.2580     0.2200 hc         1 1L1       0.050700
     19 H18          0.6040    -1.7530    -1.4170 hc         1 1L1       0.050700
     20 H21          3.8710     1.0800    -1.5420 hc         1 1L1       0.029450
     21 H22          5.0740    -0.1930    -1.4530 hc         1 1L1       0.029450
     22 H23          2.8330    -1.1040    -2.0450 hc         1 1L1       0.037200
     23 H24          3.3930    -1.7590    -0.5170 hc         1 1L1       0.037200
     24 H25          1.4450     0.5520    -0.8560 hc         1 1L1       0.046700
     25 H26          1.2350     0.4520     1.6330 hc         1 1L1       0.037200
     26 H27          2.4330    -0.8230     1.6800 hc         1 1L1       0.037200
     27 H28          3.4590     1.3670     2.2140 hc         1 1L1       0.029450
     28 H29          2.8880     2.0360     0.6980 hc         1 1L1       0.029450
     29 H30         -0.6030     1.9780     1.6560 hn         1 1L1       0.415300
     30 H31         -0.0200     2.5370     0.1820 hn         1 1L1       0.415300
     31 OXT         -1.5670    -2.9680     0.8870 o          1 1L1      -0.816800
     32 H19          4.9040    -0.2330     1.0140 hc         1 1L1       0.028700
     33 H20          5.2610     1.3960     0.4740 hc         1 1L1       0.028700
@<TRIPOS>BOND
     1     1     2 1   
     2     1     5 1   
     3     1    31 1   
     4     2     3 1   
     5     2     4 1   
     6     2    16 1   
     7     3    12 1   
     8     3    17 1   
     9     4     9 1   
    10     4    18 1   
    11     4    19 1   
    12     6     7 1   
    13     6    11 1   
    14     6    32 1   
    15     6    33 1   
    16     7     8 1   
    17     7    20 1   
    18     7    21 1   
    19     8     9 1   
    20     8    22 1   
    21     8    23 1   
    22     9    10 1   
    23     9    24 1   
    24    10    11 1   
    25    10    25 1   
    26    10    26 1   
    27    11    27 1   
    28    11    28 1   
    29    12    13 1   
    30    12    14 2   
    31    12    15 2   
    32    13    29 1   
    33    13    30 1   
@<TRIPOS>SUBSTRUCTURE
     1 1L1         1 TEMP              0 ****  ****    0 ROOT
