@<TRIPOS>MOLECULE
1L1
   33    33     1     0     0
SMALL
No Charge or Current Charge


@<TRIPOS>ATOM
      1 C17         -1.6800    -1.9640     0.0360 c          1 1L1       0.713000
      2 C18         -0.6210    -0.7990     0.1460 c3         1 1L1       0.046500
      3 N19         -1.0670     0.4960    -0.4760 n7         1 1L1      -0.885300
      4 C20          0.7220    -1.2440    -0.4940 c3         1 1L1      -0.051400
      5 O21         -2.2820    -2.0960    -1.0220 o          1 1L1      -0.711500
      6 C22          4.7540     0.3760     0.5020 c6         1 1L1      -0.071400
      7 C23          4.3870     0.1460    -0.9830 c6         1 1L1      -0.073900
      8 C24          3.1700    -0.8010    -1.1180 c6         1 1L1      -0.071900
      9 C25          1.9370    -0.2730    -0.3300 c6         1 1L1      -0.062700
     10 C26          2.3170    -0.0330     1.1620 c6         1 1L1      -0.071900
     11 C27          3.5390     0.9100     1.2970 c6         1 1L1      -0.073900
     12 S28         -2.3950     1.2470     0.0950 s6         1 1L1       1.248200
     13 N29         -1.7870     2.7200     0.1570 n8         1 1L1      -1.038100
     14 O30         -3.4170     1.1940    -0.9390 o          1 1L1      -0.571500
     15 O31         -2.6260     0.8280     1.4700 o          1 1L1      -0.571500
     16 H15         -0.4400    -0.6460     1.2170 h1         1 1L1       0.036700
     17 H16         -1.4830     0.2320    -1.3720 hn         1 1L1       0.508000
     18 H17          0.9890    -2.2200    -0.0690 hc         1 1L1       0.050700
     19 H18          0.5450    -1.4260    -1.5610 hc         1 1L1       0.050700
     20 H21          4.1620     1.1090    -1.4630 hc         1 1L1       0.029450
     21 H22          5.2490    -0.2750    -1.5190 hc         1 1L1       0.029450
     22 H23          2.9150    -0.9150    -2.1810 hc         1 1L1       0.037200
     23 H24          3.4440    -1.8020    -0.7550 hc         1 1L1       0.037200
     24 H25          1.6390     0.6880    -0.7730 hc         1 1L1       0.046700
     25 H26          1.4720     0.4080     1.7060 hc         1 1L1       0.037200
     26 H27          2.5370    -0.9920     1.6500 hc         1 1L1       0.037200
     27 H28          3.8080     1.0220     2.3560 hc         1 1L1       0.029450
     28 H29          3.2730     1.9130     0.9350 hc         1 1L1       0.029450
     29 H30         -1.8280     2.8760     1.1590 hn         1 1L1       0.470500
     30 H31         -0.8200     2.4490    -0.0050 hn         1 1L1       0.470500
     31 OXT         -1.8970    -2.6550     1.0230 o          1 1L1      -0.711500
     32 H19          5.1040    -0.5650     0.9480 hc         1 1L1       0.028700
     33 H20          5.5890     1.0870     0.5750 hc         1 1L1       0.028700
@<TRIPOS>BOND
     1     1     2 1   
     2     1     5 1   
     3     1    31 1   
     4     2     3 1   
     5     2     4 1   
     6     2    16 1   
     7     3    12 1   
     8     3    17 1   
     9     4     9 1   
    10     4    18 1   
    11     4    19 1   
    12     6     7 1   
    13     6    11 1   
    14     6    32 1   
    15     6    33 1   
    16     7     8 1   
    17     7    20 1   
    18     7    21 1   
    19     8     9 1   
    20     8    22 1   
    21     8    23 1   
    22     9    10 1   
    23     9    24 1   
    24    10    11 1   
    25    10    25 1   
    26    10    26 1   
    27    11    27 1   
    28    11    28 1   
    29    12    13 1   
    30    12    14 2   
    31    12    15 2   
    32    13    29 1   
    33    13    30 1   
@<TRIPOS>SUBSTRUCTURE
     1 1L1         1 TEMP              0 ****  ****    0 ROOT
