@<TRIPOS>MOLECULE
1L2
  135   135     1     0     0
SMALL
No Charge or Current Charge


@<TRIPOS>ATOM
      1 C1           2.9160    -2.0000     0.0240 c6         1 1L2       0.359300
      2 O1           1.6030    -2.0040     0.6120 os         1 1L2      -0.456000
      3 C2           3.0660    -0.7480    -0.9030 c6         1 1L2       0.116300
      4 O2           2.6890     0.4620    -0.2070 oh         1 1L2      -0.717000
      5 C3           2.1850    -0.9050    -2.1820 c6         1 1L2       0.134300
      6 O3           2.4260     0.1980    -3.0770 oh         1 1L2      -0.673000
      7 C4           2.4580    -2.2600    -2.8990 c6         1 1L2       0.149300
      8 O4           3.7780    -2.2270    -3.4800 oh         1 1L2      -0.716000
      9 C5           2.2770    -3.4160    -1.8620 c6         1 1L2       0.166300
     10 O5           3.1470    -3.2220    -0.7120 os         1 1L2      -0.450000
     11 C6           2.5660    -4.8240    -2.4800 c3         1 1L2       0.169600
     12 O6           2.3690    -5.9100    -1.5510 oh         1 1L2      -0.716000
     13 C54        -13.2560     7.2160     0.9200 c3         1 1L2      -0.075400
     14 C55        -14.0090     8.4650     0.4220 c3         1 1L2      -0.088100
     15 CAL          1.3160    -3.0490     1.5630 c3         1 1L2       0.141600
     16 CAM         -0.0870    -2.8100     2.2030 c3         1 1L2       0.170300
     17 OAN         -1.0610    -2.4560     1.1880 os         1 1L2      -0.440100
     18 CAO         -1.4200    -3.3850     0.2470 c          1 1L2       0.601100
     19 OAP         -1.0780    -4.5580     0.2600 o          1 1L2      -0.486000
     20 CAQ         -2.4220    -2.8080    -0.7540 c3         1 1L2      -0.131400
     21 CAR         -3.8790    -3.0660    -0.3010 c3         1 1L2      -0.067400
     22 CAS         -4.9280    -2.4310    -1.2400 c3         1 1L2      -0.076400
     23 CAT         -6.3800    -2.7340    -0.8110 c3         1 1L2      -0.074400
     24 CAU         -7.4340    -2.0690    -1.7240 c3         1 1L2      -0.075400
     25 CAV         -8.8840    -2.4230    -1.3260 c3         1 1L2      -0.072400
     26 CAW         -9.9420    -1.7330    -2.2110 c3         1 1L2      -0.043200
     27 CAX        -11.3540    -2.1480    -1.8410 c2         1 1L2      -0.217200
     28 CAY        -12.1750    -1.5390    -0.9670 c2         1 1L2      -0.214200
     29 CAZ        -11.8680    -0.3160    -0.1220 c3         1 1L2      -0.043200
     30 CBA        -12.5800     0.9470    -0.6490 c3         1 1L2      -0.072400
     31 CBB        -12.3060     2.2010     0.2090 c3         1 1L2      -0.075400
     32 CBC        -13.0390     3.4590    -0.3060 c3         1 1L2      -0.074400
     33 CBD        -12.7730     4.7110     0.5590 c3         1 1L2      -0.074400
     34 CBE        -13.5200     5.9650     0.0550 c3         1 1L2      -0.076400
     35 CBF         -0.1080    -1.7150     3.3040 c3         1 1L2       0.171600
     36 OBG          0.4060    -0.4660     2.7920 os         1 1L2      -0.424100
     37 CBH          0.4580     0.6010     3.6470 c          1 1L2       0.599100
     38 OBI          0.1330     0.5590     4.8260 o          1 1L2      -0.499000
     39 CBJ          1.1180     1.8160     2.9950 c3         1 1L2      -0.142400
     40 CBK          2.6550     1.7740     3.1780 c3         1 1L2      -0.066400
     41 CBL          3.3810     2.9670     2.5180 c3         1 1L2      -0.076400
     42 CBM          4.9140     2.9050     2.6960 c3         1 1L2      -0.074400
     43 CBN          5.6490     4.1020     2.0550 c3         1 1L2      -0.075400
     44 CBO          7.1780     4.0540     2.2700 c3         1 1L2      -0.072400
     45 CBP          7.9200     5.2510     1.6410 c3         1 1L2      -0.042200
     46 CBQ          9.4100     5.2150     1.9280 c2         1 1L2      -0.218200
     47 CBR         10.3640     4.5870     1.2160 c2         1 1L2      -0.212200
     48 CBS         10.1800     3.7390    -0.0290 c3         1 1L2      -0.011000
     49 CBT         11.0830     4.2310    -1.1440 c2         1 1L2      -0.214200
     50 CBU         12.0450     3.5390    -1.7820 c2         1 1L2      -0.216200
     51 CBV         12.4790     2.1110    -1.5100 c3         1 1L2      -0.043200
     52 CBW         11.6400     1.0830    -2.2990 c3         1 1L2      -0.073400
     53 CBX         12.0320    -0.3810    -2.0000 c3         1 1L2      -0.076400
     54 CBZ         11.1890    -1.4090    -2.7870 c3         1 1L2      -0.074400
     55 CCA         11.5640    -2.8700    -2.4670 c3         1 1L2      -0.088100
     56 H1           3.6630    -1.9250     0.8290 h2         1 1L2       0.067700
     57 H2           4.1210    -0.6880    -1.2080 h1         1 1L2       0.064700
     58 HO2          1.9640     0.1910     0.4070 ho         1 1L2       0.512000
     59 H3           1.1300    -0.9040    -1.8670 h1         1 1L2       0.074700
     60 HO3          2.4860     0.9910    -2.4930 ho         1 1L2       0.466000
     61 H4           1.7050    -2.3860    -3.6910 h1         1 1L2       0.050700
     62 HO4          3.8690    -1.3030    -3.8180 ho         1 1L2       0.521000
     63 H5           1.2320    -3.4210    -1.5180 h1         1 1L2       0.069700
     64 H6           1.9090    -4.9530    -3.3510 h1         1 1L2       0.036200
     65 H6A          3.6000    -4.8330    -2.8510 h1         1 1L2       0.036200
     66 HO6          2.6600    -6.7340    -2.0060 ho         1 1L2       0.504000
     67 H54        -12.1800     7.4300     0.9320 hc         1 1L2       0.036700
     68 H54A       -13.5530     7.0120     1.9560 hc         1 1L2       0.036700
     69 H55        -15.0930     8.2950     0.4330 hc         1 1L2       0.031367
     70 H55A       -13.7910     9.3250     1.0650 hc         1 1L2       0.031367
     71 H55B       -13.7080     8.7170    -0.6020 hc         1 1L2       0.031367
     72 HAL          1.3310    -4.0310     1.0710 h1         1 1L2       0.050200
     73 HALA         2.0720    -3.0690     2.3580 h1         1 1L2       0.050200
     74 HAM         -0.3890    -3.7450     2.6940 h1         1 1L2       0.075700
     75 HAQ         -2.2780    -1.7230    -0.8180 hc         1 1L2       0.070200
     76 HAQA        -2.2640    -3.2760    -1.7330 hc         1 1L2       0.070200
     77 HAR         -4.0500    -4.1480    -0.2430 hc         1 1L2       0.054700
     78 HARA        -4.0170    -2.6670     0.7130 hc         1 1L2       0.054700
     79 HAS         -4.7780    -1.3440    -1.2650 hc         1 1L2       0.036200
     80 HASA        -4.7700    -2.8010    -2.2610 hc         1 1L2       0.036200
     81 HAT         -6.5350    -3.8210    -0.8130 hc         1 1L2       0.040200
     82 HATA        -6.5320    -2.3920     0.2210 hc         1 1L2       0.040200
     83 HAU         -7.3040    -0.9800    -1.6880 hc         1 1L2       0.036700
     84 HAUA        -7.2600    -2.3800    -2.7620 hc         1 1L2       0.036700
     85 HAV         -9.0180    -3.5100    -1.3880 hc         1 1L2       0.040700
     86 HAVA        -9.0530    -2.1390    -0.2800 hc         1 1L2       0.040700
     87 HAW         -9.8250    -0.6450    -2.1300 hc         1 1L2       0.044200
     88 HAWA        -9.7520    -1.9780    -3.2640 hc         1 1L2       0.044200
     89 HAX        -11.7030    -3.0340    -2.3770 ha         1 1L2       0.165000
     90 HAY        -13.1760    -1.9440    -0.8020 ha         1 1L2       0.165000
     91 HAZ        -12.1820    -0.5010     0.9130 hc         1 1L2       0.044200
     92 HAZA       -10.7900    -0.1250    -0.0800 hc         1 1L2       0.044200
     93 HBA        -12.2570     1.1360    -1.6810 hc         1 1L2       0.039700
     94 HBAA       -13.6610     0.7610    -0.6820 hc         1 1L2       0.039700
     95 HBB        -12.6150     2.0040     1.2430 hc         1 1L2       0.036700
     96 HBBA       -11.2260     2.3950     0.2290 hc         1 1L2       0.036700
     97 HBC        -12.7270     3.6610    -1.3380 hc         1 1L2       0.037700
     98 HBCA       -14.1180     3.2620    -0.3290 hc         1 1L2       0.037700
     99 HBD        -13.0740     4.5050     1.5940 hc         1 1L2       0.036700
    100 HBDA       -11.6950     4.9160     0.5740 hc         1 1L2       0.036700
    101 HBE        -14.5980     5.7590     0.0390 hc         1 1L2       0.036700
    102 HBEA       -13.2190     6.1720    -0.9800 hc         1 1L2       0.036700
    103 HBF         -1.1390    -1.5920     3.6630 h1         1 1L2       0.057200
    104 HBFA         0.5020    -2.0580     4.1500 h1         1 1L2       0.057200
    105 HBJ          0.9110     1.8000     1.9190 hc         1 1L2       0.077200
    106 HBJA         0.7250     2.7310     3.4530 hc         1 1L2       0.077200
    107 HBK          2.8880     1.7600     4.2500 hc         1 1L2       0.053200
    108 HBKA         3.0440     0.8380     2.7570 hc         1 1L2       0.053200
    109 HBL          3.1430     2.9890     1.4470 hc         1 1L2       0.036700
    110 HBLA         3.0040     3.9020     2.9510 hc         1 1L2       0.036700
    111 HBM          5.1500     2.8700     3.7670 hc         1 1L2       0.040200
    112 HBMA         5.2900     1.9740     2.2530 hc         1 1L2       0.040200
    113 HBN          5.4350     4.1240     0.9790 hc         1 1L2       0.036700
    114 HBNA         5.2560     5.0350     2.4790 hc         1 1L2       0.036700
    115 HBO          7.3890     4.0280     3.3470 hc         1 1L2       0.040200
    116 HBOA         7.5750     3.1230     1.8450 hc         1 1L2       0.040200
    117 HBP          7.7320     5.2650     0.5610 hc         1 1L2       0.043700
    118 HBPA         7.4960     6.1850     2.0310 hc         1 1L2       0.043700
    119 HBQ          9.6960     5.7840     2.8150 ha         1 1L2       0.165000
    120 HBR         11.4040     4.6520     1.5420 ha         1 1L2       0.168000
    121 HBS         10.3860     2.6920     0.2170 hc         1 1L2       0.051200
    122 HBSA         9.1400     3.7550    -0.3740 hc         1 1L2       0.051200
    123 HBT         10.8800     5.2630    -1.4400 ha         1 1L2       0.168000
    124 HBU         12.6130     4.0240    -2.5800 ha         1 1L2       0.165000
    125 HBV         13.5380     1.9910    -1.7730 hc         1 1L2       0.044700
    126 HBVA        12.4100     1.8860    -0.4390 hc         1 1L2       0.044700
    127 HBW         10.5790     1.2280    -2.0570 hc         1 1L2       0.039200
    128 HBWA        11.7530     1.2770    -3.3730 hc         1 1L2       0.039200
    129 HBX         13.0930    -0.5270    -2.2400 hc         1 1L2       0.036700
    130 HBXA        11.9170    -0.5700    -0.9250 hc         1 1L2       0.036700
    131 HBZ         10.1260    -1.2580    -2.5600 hc         1 1L2       0.036700
    132 HBZA        11.3150    -1.2370    -3.8630 hc         1 1L2       0.036700
    133 HCA         10.9440    -3.5600    -3.0520 hc         1 1L2       0.031367
    134 HCAA        12.6160    -3.0640    -2.7120 hc         1 1L2       0.031367
    135 HCAB        11.4100    -3.0860    -1.4030 hc         1 1L2       0.031367
@<TRIPOS>BOND
     1     1     2 1   
     2     1     3 1   
     3     1    10 1   
     4     1    56 1   
     5     2    15 1   
     6     3     4 1   
     7     3     5 1   
     8     3    57 1   
     9     4    58 1   
    10     5     6 1   
    11     5     7 1   
    12     5    59 1   
    13     6    60 1   
    14     7     8 1   
    15     7     9 1   
    16     7    61 1   
    17     8    62 1   
    18     9    10 1   
    19     9    11 1   
    20     9    63 1   
    21    11    12 1   
    22    11    64 1   
    23    11    65 1   
    24    12    66 1   
    25    13    14 1   
    26    13    34 1   
    27    13    67 1   
    28    13    68 1   
    29    14    69 1   
    30    14    70 1   
    31    14    71 1   
    32    15    16 1   
    33    15    72 1   
    34    15    73 1   
    35    16    17 1   
    36    16    35 1   
    37    16    74 1   
    38    17    18 1   
    39    18    19 2   
    40    18    20 1   
    41    20    21 1   
    42    20    75 1   
    43    20    76 1   
    44    21    22 1   
    45    21    77 1   
    46    21    78 1   
    47    22    23 1   
    48    22    79 1   
    49    22    80 1   
    50    23    24 1   
    51    23    81 1   
    52    23    82 1   
    53    24    25 1   
    54    24    83 1   
    55    24    84 1   
    56    25    26 1   
    57    25    85 1   
    58    25    86 1   
    59    26    27 1   
    60    26    87 1   
    61    26    88 1   
    62    27    28 2   
    63    27    89 1   
    64    28    29 1   
    65    28    90 1   
    66    29    30 1   
    67    29    91 1   
    68    29    92 1   
    69    30    31 1   
    70    30    93 1   
    71    30    94 1   
    72    31    32 1   
    73    31    95 1   
    74    31    96 1   
    75    32    33 1   
    76    32    97 1   
    77    32    98 1   
    78    33    34 1   
    79    33    99 1   
    80    33   100 1   
    81    34   101 1   
    82    34   102 1   
    83    35    36 1   
    84    35   103 1   
    85    35   104 1   
    86    36    37 1   
    87    37    38 2   
    88    37    39 1   
    89    39    40 1   
    90    39   105 1   
    91    39   106 1   
    92    40    41 1   
    93    40   107 1   
    94    40   108 1   
    95    41    42 1   
    96    41   109 1   
    97    41   110 1   
    98    42    43 1   
    99    42   111 1   
   100    42   112 1   
   101    43    44 1   
   102    43   113 1   
   103    43   114 1   
   104    44    45 1   
   105    44   115 1   
   106    44   116 1   
   107    45    46 1   
   108    45   117 1   
   109    45   118 1   
   110    46    47 2   
   111    46   119 1   
   112    47    48 1   
   113    47   120 1   
   114    48    49 1   
   115    48   121 1   
   116    48   122 1   
   117    49    50 2   
   118    49   123 1   
   119    50    51 1   
   120    50   124 1   
   121    51    52 1   
   122    51   125 1   
   123    51   126 1   
   124    52    53 1   
   125    52   127 1   
   126    52   128 1   
   127    53    54 1   
   128    53   129 1   
   129    53   130 1   
   130    54    55 1   
   131    54   131 1   
   132    54   132 1   
   133    55   133 1   
   134    55   134 1   
   135    55   135 1   
@<TRIPOS>SUBSTRUCTURE
     1 1L2         1 TEMP              0 ****  ****    0 ROOT
