@<TRIPOS>MOLECULE
1L2
  135   135     1     0     0
SMALL
bcc


@<TRIPOS>ATOM
      1 C1           1.3730    -4.5130    -0.1070 c6         1 1L2       0.312900
      2 O1           1.0990    -3.9270     1.1210 os         1 1L2      -0.409600
      3 C2           2.4060    -3.6400    -0.8270 c6         1 1L2       0.093100
      4 O2           3.5570    -3.4060    -0.0540 oh         1 1L2      -0.594800
      5 C3           1.7890    -2.2900    -1.1740 c6         1 1L2       0.111100
      6 O3           2.6700    -1.4930    -1.9320 oh         1 1L2      -0.610800
      7 C4           0.5180    -2.4980    -1.9950 c6         1 1L2       0.126100
      8 O4           0.7960    -3.0610    -3.2540 oh         1 1L2      -0.593800
      9 C5          -0.4120    -3.4240    -1.2240 c6         1 1L2       0.143100
     10 O5           0.2280    -4.6490    -0.9010 os         1 1L2      -0.403600
     11 C6          -1.6800    -3.7480    -1.9840 c3         1 1L2       0.146400
     12 O6          -2.5410    -4.4560    -1.1220 oh         1 1L2      -0.593800
     13 C54        -15.8460     7.6740     0.1170 c3         1 1L2      -0.075400
     14 C55        -16.6320     8.7710    -0.5890 c3         1 1L2      -0.088100
     15 CAL          0.3520    -4.7110     2.0190 c3         1 1L2       0.118400
     16 CAM         -0.4000    -3.8320     3.0030 c3         1 1L2       0.147100
     17 OAN         -1.3560    -3.0070     2.3300 os         1 1L2      -0.416900
     18 CAO         -2.5850    -3.4800     2.1090 c          1 1L2       0.650100
     19 OAP         -2.9410    -4.5820     2.4380 o          1 1L2      -0.535000
     20 CAQ         -3.4440    -2.4510     1.4310 c3         1 1L2      -0.131400
     21 CAR         -4.8550    -2.9270     1.1340 c3         1 1L2      -0.067400
     22 CAS         -5.6790    -1.8510     0.4380 c3         1 1L2      -0.076400
     23 CAT         -7.1010    -2.3010     0.1280 c3         1 1L2      -0.074400
     24 CAU         -7.9330    -1.2270    -0.5620 c3         1 1L2      -0.075400
     25 CAV         -9.3630    -1.6700    -0.8450 c3         1 1L2      -0.072400
     26 CAW        -10.1920    -0.5960    -1.5510 c3         1 1L2      -0.043200
     27 CAX        -11.5900    -1.0540    -1.8240 c2         1 1L2      -0.167200
     28 CAY        -12.7230    -0.5400    -1.3460 c2         1 1L2      -0.164200
     29 CAZ        -12.8820     0.6550    -0.4600 c3         1 1L2      -0.043200
     30 CBA        -13.6520     1.7810    -1.1530 c3         1 1L2      -0.072400
     31 CBB        -13.8680     2.9950    -0.2580 c3         1 1L2      -0.075400
     32 CBC        -14.6480     4.1090    -0.9450 c3         1 1L2      -0.074400
     33 CBD        -14.8560     5.3340    -0.0640 c3         1 1L2      -0.074400
     34 CBE        -15.6420     6.4410    -0.7550 c3         1 1L2      -0.076400
     35 CBF          0.4660    -2.9230     3.8500 c3         1 1L2       0.148400
     36 OBG          1.1000    -1.9620     3.0150 os         1 1L2      -0.400900
     37 CBH          2.2180    -1.3830     3.4340 c          1 1L2       0.648100
     38 OBI          2.6520    -1.5030     4.5530 o          1 1L2      -0.548000
     39 CBJ          2.8770    -0.6150     2.3230 c3         1 1L2      -0.142400
     40 CBK          3.9540     0.3570     2.7740 c3         1 1L2      -0.066400
     41 CBL          4.6450     1.0020     1.5790 c3         1 1L2      -0.076400
     42 CBM          5.7660     1.9550     1.9670 c3         1 1L2      -0.074400
     43 CBN          6.4660     2.5650     0.7590 c3         1 1L2      -0.075400
     44 CBO          7.6440     3.4560     1.1280 c3         1 1L2      -0.072400
     45 CBP          8.3340     4.0630    -0.0950 c3         1 1L2      -0.042200
     46 CBQ          9.4930     4.9260     0.2910 c2         1 1L2      -0.168200
     47 CBR         10.7760     4.7700    -0.0350 c2         1 1L2      -0.162200
     48 CBS         11.3800     3.7170    -0.9200 c3         1 1L2      -0.011000
     49 CBT         12.0990     4.3530    -2.0750 c2         1 1L2      -0.164200
     50 CBU         13.4090     4.3430    -2.3190 c2         1 1L2      -0.166200
     51 CBV         14.4840     3.6540    -1.5400 c3         1 1L2      -0.043200
     52 CBW         15.3320     2.7350    -2.4230 c3         1 1L2      -0.073400
     53 CBX         16.3940     1.9750    -1.6400 c3         1 1L2      -0.076400
     54 CBZ         17.2850     1.1070    -2.5210 c3         1 1L2      -0.074400
     55 CCA         18.3080     0.3100    -1.7250 c3         1 1L2      -0.088100
     56 H1           1.7590    -5.5350     0.0160 h2         1 1L2       0.067700
     57 H2           2.6640    -4.1550    -1.7610 h1         1 1L2       0.064700
     58 HO2          4.1470    -4.1620    -0.1340 ho         1 1L2       0.413000
     59 H3           1.5060    -1.7800    -0.2420 h1         1 1L2       0.074700
     60 HO3          3.5380    -1.5270    -1.5160 ho         1 1L2       0.427000
     61 H4           0.0100    -1.5280    -2.1000 h1         1 1L2       0.050700
     62 HO4          1.5020    -2.5450    -3.6590 ho         1 1L2       0.422000
     63 H5          -0.7000    -2.8910    -0.3080 h1         1 1L2       0.069700
     64 H6          -2.1240    -2.8010    -2.3150 h1         1 1L2       0.036200
     65 H6A         -1.4450    -4.3270    -2.8840 h1         1 1L2       0.036200
     66 HO6         -3.3730    -4.5950    -1.5810 ho         1 1L2       0.405000
     67 H54        -14.8700     8.0630     0.4260 hc         1 1L2       0.036700
     68 H54A       -16.3620     7.3850     1.0380 hc         1 1L2       0.036700
     69 H55        -17.6280     8.4220    -0.8690 hc         1 1L2       0.031367
     70 H55A       -16.7560     9.6500     0.0440 hc         1 1L2       0.031367
     71 H55B       -16.1270     9.0880    -1.5020 hc         1 1L2       0.031367
     72 HAL         -0.3720    -5.3460     1.4980 h1         1 1L2       0.050200
     73 HALA         1.0100    -5.3760     2.5930 h1         1 1L2       0.050200
     74 HAM         -0.9040    -4.5060     3.7010 h1         1 1L2       0.075700
     75 HAQ         -3.4650    -1.5580     2.0640 hc         1 1L2       0.070200
     76 HAQA        -2.9440    -2.1460     0.5070 hc         1 1L2       0.070200
     77 HAR         -4.8160    -3.8190     0.5050 hc         1 1L2       0.054700
     78 HARA        -5.3530    -3.2220     2.0620 hc         1 1L2       0.054700
     79 HAS         -5.7120    -0.9530     1.0650 hc         1 1L2       0.036200
     80 HASA        -5.1800    -1.5540    -0.4910 hc         1 1L2       0.036200
     81 HAT         -7.0690    -3.1960    -0.5030 hc         1 1L2       0.040200
     82 HATA        -7.5970    -2.6020     1.0570 hc         1 1L2       0.040200
     83 HAU         -7.9510    -0.3260     0.0610 hc         1 1L2       0.036700
     84 HAUA        -7.4470    -0.9380    -1.5000 hc         1 1L2       0.036700
     85 HAV         -9.3500    -2.5780    -1.4570 hc         1 1L2       0.040700
     86 HAVA        -9.8540    -1.9420     0.0950 hc         1 1L2       0.040700
     87 HAW        -10.1880     0.3180    -0.9520 hc         1 1L2       0.044200
     88 HAWA        -9.7030    -0.3430    -2.4980 hc         1 1L2       0.044200
     89 HAX        -11.6690    -1.9230    -2.4730 ha         1 1L2       0.115000
     90 HAY        -13.6540    -1.0160    -1.6440 ha         1 1L2       0.115000
     91 HAZ        -13.4290     0.3640     0.4440 hc         1 1L2       0.044200
     92 HAZA       -11.9130     1.0310    -0.1230 hc         1 1L2       0.044200
     93 HBA        -13.1110     2.0830    -2.0550 hc         1 1L2       0.039700
     94 HBAA       -14.6220     1.4020    -1.4930 hc         1 1L2       0.039700
     95 HBB        -14.3980     2.6880     0.6510 hc         1 1L2       0.036700
     96 HBBA       -12.8980     3.3800     0.0730 hc         1 1L2       0.036700
     97 HBC        -14.1240     4.4050    -1.8610 hc         1 1L2       0.037700
     98 HBCA       -15.6220     3.7230    -1.2660 hc         1 1L2       0.037700
     99 HBD        -15.3760     5.0390     0.8540 hc         1 1L2       0.036700
    100 HBDA       -13.8820     5.7230     0.2520 hc         1 1L2       0.036700
    101 HBE        -16.6190     6.0530    -1.0660 hc         1 1L2       0.036700
    102 HBEA       -15.1260     6.7310    -1.6770 hc         1 1L2       0.036700
    103 HBF         -0.1490    -2.4180     4.6000 h1         1 1L2       0.057200
    104 HBFA         1.1990    -3.5360     4.3780 h1         1 1L2       0.057200
    105 HBJ          3.3110    -1.3650     1.6520 hc         1 1L2       0.077200
    106 HBJA         2.1130    -0.1040     1.7300 hc         1 1L2       0.077200
    107 HBK          3.5180     1.1300     3.4120 hc         1 1L2       0.053200
    108 HBKA         4.6970    -0.1670     3.3810 hc         1 1L2       0.053200
    109 HBL          5.0530     0.2140     0.9350 hc         1 1L2       0.036700
    110 HBLA         3.9050     1.5340     0.9700 hc         1 1L2       0.036700
    111 HBM          5.3670     2.7530     2.6020 hc         1 1L2       0.040200
    112 HBMA         6.5000     1.4180     2.5790 hc         1 1L2       0.040200
    113 HBN          6.8170     1.7600     0.1040 hc         1 1L2       0.036700
    114 HBNA         5.7420     3.1390     0.1700 hc         1 1L2       0.036700
    115 HBO          7.3040     4.2600     1.7900 hc         1 1L2       0.040200
    116 HBOA         8.3740     2.8760     1.7020 hc         1 1L2       0.040200
    117 HBP          8.6410     3.2610    -0.7700 hc         1 1L2       0.043700
    118 HBPA         7.6030     4.6650    -0.6460 hc         1 1L2       0.043700
    119 HBQ          9.2450     5.7610     0.9420 ha         1 1L2       0.115000
    120 HBR         11.4870     5.4880     0.3650 ha         1 1L2       0.118000
    121 HBS         12.0660     3.1030    -0.3310 hc         1 1L2       0.051200
    122 HBSA        10.6090     3.0430    -1.3000 hc         1 1L2       0.051200
    123 HBT         11.4600     4.9040    -2.7610 ha         1 1L2       0.118000
    124 HBU         13.7550     4.8820    -3.1990 ha         1 1L2       0.115000
    125 HBV         15.1400     4.4070    -1.0880 hc         1 1L2       0.044700
    126 HBVA        14.0670     3.0790    -0.7110 hc         1 1L2       0.044700
    127 HBW         14.6780     2.0220    -2.9350 hc         1 1L2       0.039200
    128 HBWA        15.8080     3.3310    -3.2090 hc         1 1L2       0.039200
    129 HBX         17.0160     2.6830    -1.0820 hc         1 1L2       0.036700
    130 HBXA        15.9050     1.3450    -0.8880 hc         1 1L2       0.036700
    131 HBZ         16.6600     0.4230    -3.1040 hc         1 1L2       0.036700
    132 HBZA        17.7990     1.7430    -3.2490 hc         1 1L2       0.036700
    133 HCA         18.9410    -0.2940    -2.3750 hc         1 1L2       0.031367
    134 HCAA        18.9610     0.9680    -1.1490 hc         1 1L2       0.031367
    135 HCAB        17.8190    -0.3650    -1.0200 hc         1 1L2       0.031367
@<TRIPOS>BOND
     1     1     2 1   
     2     1     3 1   
     3     1    10 1   
     4     1    56 1   
     5     2    15 1   
     6     3     4 1   
     7     3     5 1   
     8     3    57 1   
     9     4    58 1   
    10     5     6 1   
    11     5     7 1   
    12     5    59 1   
    13     6    60 1   
    14     7     8 1   
    15     7     9 1   
    16     7    61 1   
    17     8    62 1   
    18     9    10 1   
    19     9    11 1   
    20     9    63 1   
    21    11    12 1   
    22    11    64 1   
    23    11    65 1   
    24    12    66 1   
    25    13    14 1   
    26    13    34 1   
    27    13    67 1   
    28    13    68 1   
    29    14    69 1   
    30    14    70 1   
    31    14    71 1   
    32    15    16 1   
    33    15    72 1   
    34    15    73 1   
    35    16    17 1   
    36    16    35 1   
    37    16    74 1   
    38    17    18 1   
    39    18    19 2   
    40    18    20 1   
    41    20    21 1   
    42    20    75 1   
    43    20    76 1   
    44    21    22 1   
    45    21    77 1   
    46    21    78 1   
    47    22    23 1   
    48    22    79 1   
    49    22    80 1   
    50    23    24 1   
    51    23    81 1   
    52    23    82 1   
    53    24    25 1   
    54    24    83 1   
    55    24    84 1   
    56    25    26 1   
    57    25    85 1   
    58    25    86 1   
    59    26    27 1   
    60    26    87 1   
    61    26    88 1   
    62    27    28 2   
    63    27    89 1   
    64    28    29 1   
    65    28    90 1   
    66    29    30 1   
    67    29    91 1   
    68    29    92 1   
    69    30    31 1   
    70    30    93 1   
    71    30    94 1   
    72    31    32 1   
    73    31    95 1   
    74    31    96 1   
    75    32    33 1   
    76    32    97 1   
    77    32    98 1   
    78    33    34 1   
    79    33    99 1   
    80    33   100 1   
    81    34   101 1   
    82    34   102 1   
    83    35    36 1   
    84    35   103 1   
    85    35   104 1   
    86    36    37 1   
    87    37    38 2   
    88    37    39 1   
    89    39    40 1   
    90    39   105 1   
    91    39   106 1   
    92    40    41 1   
    93    40   107 1   
    94    40   108 1   
    95    41    42 1   
    96    41   109 1   
    97    41   110 1   
    98    42    43 1   
    99    42   111 1   
   100    42   112 1   
   101    43    44 1   
   102    43   113 1   
   103    43   114 1   
   104    44    45 1   
   105    44   115 1   
   106    44   116 1   
   107    45    46 1   
   108    45   117 1   
   109    45   118 1   
   110    46    47 2   
   111    46   119 1   
   112    47    48 1   
   113    47   120 1   
   114    48    49 1   
   115    48   121 1   
   116    48   122 1   
   117    49    50 2   
   118    49   123 1   
   119    50    51 1   
   120    50   124 1   
   121    51    52 1   
   122    51   125 1   
   123    51   126 1   
   124    52    53 1   
   125    52   127 1   
   126    52   128 1   
   127    53    54 1   
   128    53   129 1   
   129    53   130 1   
   130    54    55 1   
   131    54   131 1   
   132    54   132 1   
   133    55   133 1   
   134    55   134 1   
   135    55   135 1   
@<TRIPOS>SUBSTRUCTURE
     1 1L2         1 TEMP              0 ****  ****    0 ROOT
