@<TRIPOS>MOLECULE
1L3
   73    74     1     0     0
SMALL
No Charge or Current Charge


@<TRIPOS>ATOM
      1 C10        120.4830   172.7380   158.2830 ca         1 1L3      -0.065000
      2 C15        126.9740   173.3440   159.0680 c2         1 1L3      -0.230200
      3 C17        128.2160   173.6730   156.8530 c3         1 1L3      -0.055900
      4 C20        131.0230   170.8400   159.1750 c2         1 1L3      -0.223200
      5 C21        131.1030   170.1870   160.3510 c2         1 1L3      -0.111400
      6 C22        130.3370   170.5620   161.6140 c3         1 1L3      -0.055900
      7 C24        133.2720   169.2220   161.3120 c3         1 1L3      -0.035200
      8 C26        135.0390   167.5180   160.5470 c2         1 1L3      -0.109400
      9 C28        135.8450   166.2520   160.8070 c3         1 1L3      -0.035200
     10 C01        124.2490   173.8830   161.4670 c3         1 1L3      -0.055900
     11 C02        123.7770   173.7670   160.0240 cc         1 1L3      -0.132400
     12 C03        124.5730   174.0540   158.9140 cd         1 1L3      -0.131400
     13 C04        124.0510   173.9020   157.5170 c          1 1L3       0.574900
     14 C06        122.6280   173.4350   157.3500 ca         1 1L3      -0.133600
     15 C07        122.0920   173.2630   156.0520 ca         1 1L3      -0.066000
     16 C08        120.7680   172.8330   155.8740 ca         1 1L3      -0.098000
     17 C09        119.9630   172.5710   156.9900 ca         1 1L3      -0.099000
     18 C11        121.8170   173.1700   158.4770 ca         1 1L3      -0.134600
     19 C12        122.3490   173.3390   159.8810 c          1 1L3       0.571900
     20 C14        126.0170   174.5260   159.0170 c3         1 1L3       0.002000
     21 C16        127.9100   172.9730   158.1720 c2         1 1L3      -0.090400
     22 C18        128.7780   171.7420   158.3960 c3         1 1L3      -0.041200
     23 C19        130.2100   172.0830   158.8620 c3         1 1L3      -0.036200
     24 C23        131.9720   168.9500   160.5250 c3         1 1L3      -0.038200
     25 C25        134.1350   167.9790   161.4320 c2         1 1L3      -0.218200
     26 C27        135.3720   168.1710   159.2120 c3         1 1L3      -0.053900
     27 C29        135.2450   164.9950   160.1380 c3         1 1L3      -0.033200
     28 C30        133.8540   164.6660   160.6590 c2         1 1L3      -0.221200
     29 C31        132.6660   164.8490   160.0510 c2         1 1L3      -0.109400
     30 C32        132.4500   165.4570   158.6720 c3         1 1L3      -0.054900
     31 C33        131.3540   164.4590   160.7090 c3         1 1L3      -0.054900
     32 O05        124.7360   174.1450   156.5290 o          1 1L3      -0.505100
     33 O13        121.6230   173.1280   160.8470 o          1 1L3      -0.508100
     34 H1         119.8400   172.5280   159.1360 ha         1 1L3       0.138000
     35 H2         126.8510   172.7490   159.9740 ha         1 1L3       0.166000
     36 H3         127.5490   174.5120   156.6400 hc         1 1L3       0.042700
     37 H4         129.2380   174.0680   156.8410 hc         1 1L3       0.042700
     38 H5         128.1220   172.9770   156.0100 hc         1 1L3       0.042700
     39 H6         131.6040   170.4840   158.3230 ha         1 1L3       0.166000
     40 H7         129.7620   169.7080   161.9920 hc         1 1L3       0.039367
     41 H8         131.0170   170.8850   162.4100 hc         1 1L3       0.039367
     42 H9         129.6210   171.3750   161.4510 hc         1 1L3       0.039367
     43 H10        133.8240   170.0330   160.8230 hc         1 1L3       0.044200
     44 H11        133.0260   169.5910   162.3150 hc         1 1L3       0.044200
     45 H12        135.9030   166.0630   161.8870 hc         1 1L3       0.042700
     46 H13        136.8820   166.3820   160.4750 hc         1 1L3       0.042700
     47 H14        123.8290   173.0920   162.1010 hc         1 1L3       0.055367
     48 H15        125.3360   173.7940   161.5610 hc         1 1L3       0.055367
     49 H16        123.9540   174.8480   161.8950 hc         1 1L3       0.055367
     50 H17        122.7000   173.4630   155.1710 ha         1 1L3       0.138000
     51 H18        120.3670   172.7050   154.8710 ha         1 1L3       0.121000
     52 H19        118.9360   172.2380   156.8550 ha         1 1L3       0.121000
     53 H20        126.2600   175.2210   158.2080 hc         1 1L3       0.063200
     54 H21        126.1520   175.1380   159.9160 hc         1 1L3       0.063200
     55 H22        128.3200   171.0990   159.1590 hc         1 1L3       0.047200
     56 H23        128.8250   171.1320   157.4850 hc         1 1L3       0.047200
     57 H24        130.7200   172.6650   158.0840 hc         1 1L3       0.044700
     58 H25        130.1540   172.7430   159.7360 hc         1 1L3       0.044700
     59 H26        131.4070   168.1490   161.0190 hc         1 1L3       0.046200
     60 H27        132.2520   168.5530   159.5420 hc         1 1L3       0.046200
     61 H28        133.9660   167.4290   162.3590 ha         1 1L3       0.165000
     62 H29        134.7500   169.0470   158.9990 hc         1 1L3       0.038033
     63 H30        136.4170   168.5020   159.1880 hc         1 1L3       0.038033
     64 H31        135.2290   167.4720   158.3800 hc         1 1L3       0.038033
     65 H32        135.9110   164.1460   160.3350 hc         1 1L3       0.043200
     66 H33        135.2560   165.1230   159.0500 hc         1 1L3       0.043200
     67 H34        133.8760   164.2230   161.6560 ha         1 1L3       0.162000
     68 H35        133.3700   165.8390   158.2200 hc         1 1L3       0.037533
     69 H36        132.0300   164.7170   157.9810 hc         1 1L3       0.037533
     70 H37        131.7480   166.2970   158.7200 hc         1 1L3       0.037533
     71 H38        131.5110   164.0180   161.7000 hc         1 1L3       0.037533
     72 H39        130.7030   165.3320   160.8380 hc         1 1L3       0.037533
     73 H40        130.8120   163.7230   160.1040 hc         1 1L3       0.037533
@<TRIPOS>BOND
     1     1    17 ar  
     2     1    18 ar  
     3     1    34 1   
     4     2    20 1   
     5     2    21 2   
     6     2    35 1   
     7     3    21 1   
     8     3    36 1   
     9     3    37 1   
    10     3    38 1   
    11     4     5 2   
    12     4    23 1   
    13     4    39 1   
    14     5     6 1   
    15     5    24 1   
    16     6    40 1   
    17     6    41 1   
    18     6    42 1   
    19     7    24 1   
    20     7    25 1   
    21     7    43 1   
    22     7    44 1   
    23     8     9 1   
    24     8    25 2   
    25     8    26 1   
    26     9    27 1   
    27     9    45 1   
    28     9    46 1   
    29    10    11 1   
    30    10    47 1   
    31    10    48 1   
    32    10    49 1   
    33    11    12 2   
    34    11    19 1   
    35    12    13 1   
    36    12    20 1   
    37    13    14 1   
    38    13    32 2   
    39    14    15 ar  
    40    14    18 ar  
    41    15    16 ar  
    42    15    50 1   
    43    16    17 ar  
    44    16    51 1   
    45    17    52 1   
    46    18    19 1   
    47    19    33 2   
    48    20    53 1   
    49    20    54 1   
    50    21    22 1   
    51    22    23 1   
    52    22    55 1   
    53    22    56 1   
    54    23    57 1   
    55    23    58 1   
    56    24    59 1   
    57    24    60 1   
    58    25    61 1   
    59    26    62 1   
    60    26    63 1   
    61    26    64 1   
    62    27    28 1   
    63    27    65 1   
    64    27    66 1   
    65    28    29 2   
    66    28    67 1   
    67    29    30 1   
    68    29    31 1   
    69    30    68 1   
    70    30    69 1   
    71    30    70 1   
    72    31    71 1   
    73    31    72 1   
    74    31    73 1   
@<TRIPOS>SUBSTRUCTURE
     1 1L3         1 TEMP              0 ****  ****    0 ROOT
