@<TRIPOS>MOLECULE
1L3
   73    74     1     0     0
SMALL
abcg2


@<TRIPOS>ATOM
      1 C10        120.3730   173.1320   158.5560 ca         1 1L3      -0.065000
      2 C15        126.8420   173.2520   158.9400 c2         1 1L3      -0.230200
      3 C17        128.1230   173.2020   156.7750 c3         1 1L3      -0.055900
      4 C20        130.7500   170.6010   159.3820 c2         1 1L3      -0.223200
      5 C21        130.9650   170.0810   160.5930 c2         1 1L3      -0.111400
      6 C22        130.4220   170.6560   161.8680 c3         1 1L3      -0.055900
      7 C24        133.1990   169.1530   161.3420 c3         1 1L3      -0.035200
      8 C26        135.0680   167.4750   160.9060 c2         1 1L3      -0.109400
      9 C28        135.6930   166.1480   161.2440 c3         1 1L3      -0.035200
     10 C01        124.3500   174.5740   161.2140 c3         1 1L3      -0.055900
     11 C02        123.8120   174.1900   159.8740 cc         1 1L3      -0.132400
     12 C03        124.5430   174.1410   158.7420 cd         1 1L3      -0.131400
     13 C04        123.9390   173.6780   157.4640 c          1 1L3       0.574900
     14 C06        122.4960   173.3420   157.4320 ca         1 1L3      -0.133600
     15 C07        121.9030   172.9360   156.2410 ca         1 1L3      -0.066000
     16 C08        120.5510   172.6330   156.2100 ca         1 1L3      -0.098000
     17 C09        119.7870   172.7320   157.3660 ca         1 1L3      -0.099000
     18 C11        121.7290   173.4380   158.5910 ca         1 1L3      -0.134600
     19 C12        122.3610   173.8610   159.8610 c          1 1L3       0.571900
     20 C14        126.0080   174.4760   158.6830 c3         1 1L3       0.002000
     21 C16        127.7580   172.7010   158.1400 c2         1 1L3      -0.090400
     22 C18        128.5270   171.4900   158.5990 c3         1 1L3      -0.041200
     23 C19        129.9580   171.8290   159.0480 c3         1 1L3      -0.036200
     24 C23        131.8120   168.8450   160.7540 c3         1 1L3      -0.038200
     25 C25        133.9910   167.9050   161.5700 c2         1 1L3      -0.218200
     26 C27        135.7320   168.2230   159.7870 c3         1 1L3      -0.053900
     27 C29        135.3490   165.0410   160.2290 c3         1 1L3      -0.033200
     28 C30        133.9090   164.6430   160.2940 c2         1 1L3      -0.221200
     29 C31        132.9370   164.9110   159.4190 c2         1 1L3      -0.109400
     30 C32        133.1240   165.6800   158.1460 c3         1 1L3      -0.054900
     31 C33        131.5260   164.4610   159.6650 c3         1 1L3      -0.054900
     32 O05        124.6160   173.5790   156.4620 o          1 1L3      -0.505100
     33 O13        121.7090   173.9510   160.8810 o          1 1L3      -0.508100
     34 H1         119.7770   173.2060   159.4550 ha         1 1L3       0.138000
     35 H2         126.6610   172.7820   159.9030 ha         1 1L3       0.166000
     36 H3         127.6220   174.1260   156.4980 hc         1 1L3       0.042700
     37 H4         129.1980   173.3750   156.6960 hc         1 1L3       0.042700
     38 H5         127.8750   172.4510   156.0210 hc         1 1L3       0.042700
     39 H6         131.1680   170.0730   158.5280 ha         1 1L3       0.166000
     40 H7         129.7800   169.9250   162.3660 hc         1 1L3       0.039367
     41 H8         131.2220   170.8910   162.5740 hc         1 1L3       0.039367
     42 H9         129.8370   171.5610   161.7190 hc         1 1L3       0.039367
     43 H10        133.7160   169.8460   160.6770 hc         1 1L3       0.044200
     44 H11        133.0800   169.6740   162.2970 hc         1 1L3       0.044200
     45 H12        135.3760   165.8230   162.2390 hc         1 1L3       0.042700
     46 H13        136.7820   166.2550   161.2830 hc         1 1L3       0.042700
     47 H14        124.1730   173.7780   161.9380 hc         1 1L3       0.055367
     48 H15        125.4160   174.7730   161.1970 hc         1 1L3       0.055367
     49 H16        123.8460   175.4640   161.5950 hc         1 1L3       0.055367
     50 H17        122.4960   172.8610   155.3400 ha         1 1L3       0.138000
     51 H18        120.0910   172.3190   155.2820 ha         1 1L3       0.121000
     52 H19        118.7310   172.4960   157.3390 ha         1 1L3       0.121000
     53 H20        126.2430   174.9220   157.7180 hc         1 1L3       0.063200
     54 H21        126.2380   175.2360   159.4310 hc         1 1L3       0.063200
     55 H22        128.0110   171.0050   159.4310 hc         1 1L3       0.047200
     56 H23        128.5740   170.7560   157.7880 hc         1 1L3       0.047200
     57 H24        130.4720   172.3710   158.2500 hc         1 1L3       0.044700
     58 H25        129.9060   172.5140   159.8960 hc         1 1L3       0.044700
     59 H26        131.3010   168.1280   161.4060 hc         1 1L3       0.046200
     60 H27        131.9450   168.3520   159.7880 hc         1 1L3       0.046200
     61 H28        133.6040   167.2630   162.3590 ha         1 1L3       0.165000
     62 H29        135.2210   169.1440   159.5170 hc         1 1L3       0.038033
     63 H30        136.7600   168.4780   160.0550 hc         1 1L3       0.038033
     64 H31        135.7930   167.6090   158.8850 hc         1 1L3       0.038033
     65 H32        135.9690   164.1700   160.4610 hc         1 1L3       0.043200
     66 H33        135.6370   165.3560   159.2250 hc         1 1L3       0.043200
     67 H34        133.6320   164.0910   161.1910 ha         1 1L3       0.162000
     68 H35        134.1540   165.9780   157.9620 hc         1 1L3       0.037533
     69 H36        132.7860   165.0950   157.2860 hc         1 1L3       0.037533
     70 H37        132.5130   166.5880   158.1580 hc         1 1L3       0.037533
     71 H38        131.4270   163.9090   160.5990 hc         1 1L3       0.037533
     72 H39        130.8470   165.3170   159.7040 hc         1 1L3       0.037533
     73 H40        131.1690   163.8220   158.8530 hc         1 1L3       0.037533
@<TRIPOS>BOND
     1     1    17 ar  
     2     1    18 ar  
     3     1    34 1   
     4     2    20 1   
     5     2    21 2   
     6     2    35 1   
     7     3    21 1   
     8     3    36 1   
     9     3    37 1   
    10     3    38 1   
    11     4     5 2   
    12     4    23 1   
    13     4    39 1   
    14     5     6 1   
    15     5    24 1   
    16     6    40 1   
    17     6    41 1   
    18     6    42 1   
    19     7    24 1   
    20     7    25 1   
    21     7    43 1   
    22     7    44 1   
    23     8     9 1   
    24     8    25 2   
    25     8    26 1   
    26     9    27 1   
    27     9    45 1   
    28     9    46 1   
    29    10    11 1   
    30    10    47 1   
    31    10    48 1   
    32    10    49 1   
    33    11    12 2   
    34    11    19 1   
    35    12    13 1   
    36    12    20 1   
    37    13    14 1   
    38    13    32 2   
    39    14    15 ar  
    40    14    18 ar  
    41    15    16 ar  
    42    15    50 1   
    43    16    17 ar  
    44    16    51 1   
    45    17    52 1   
    46    18    19 1   
    47    19    33 2   
    48    20    53 1   
    49    20    54 1   
    50    21    22 1   
    51    22    23 1   
    52    22    55 1   
    53    22    56 1   
    54    23    57 1   
    55    23    58 1   
    56    24    59 1   
    57    24    60 1   
    58    25    61 1   
    59    26    62 1   
    60    26    63 1   
    61    26    64 1   
    62    27    28 1   
    63    27    65 1   
    64    27    66 1   
    65    28    29 2   
    66    28    67 1   
    67    29    30 1   
    68    29    31 1   
    69    30    68 1   
    70    30    69 1   
    71    30    70 1   
    72    31    71 1   
    73    31    72 1   
    74    31    73 1   
@<TRIPOS>SUBSTRUCTURE
     1 1L3         1 TEMP              0 ****  ****    0 ROOT
