@<TRIPOS>MOLECULE
1L4
   57    60     1     0     0
SMALL
abcg2


@<TRIPOS>ATOM
      1 NAA         -2.8200    -3.8040     0.4410 n1         1 1L4      -0.454000
      2 CAF         -2.2740    -2.9760     1.0290 cg         1 1L4       0.323000
      3 CAX         -1.5970    -1.9550     1.7590 ca         1 1L4      -0.021000
      4 CD2         -0.2340    -1.7540     1.5480 ca         1 1L4      -0.077000
      5 CAH         -2.2980    -1.1820     2.6810 ca         1 1L4      -0.068000
      6 CAG         -1.6190    -0.2020     3.3840 ca         1 1L4      -0.113000
      7 CD1         -0.2630     0.0030     3.1690 ca         1 1L4      -0.068000
      8 CG           0.4450    -0.7730     2.2550 ca         1 1L4      -0.079300
      9 CB           1.9050    -0.5430     1.9900 c3         1 1L4      -0.021100
     10 CA           2.0960     0.3180     0.7320 c3         1 1L4       0.136500
     11 C            3.5790     0.3900     0.3650 c          1 1L4       0.585100
     12 O            4.2790     1.2720     0.8460 o          1 1L4      -0.606100
     13 NBE          4.0590    -0.5760    -0.4220 n          1 1L4      -0.401800
     14 CAR          3.2800    -1.6090    -1.1070 c5         1 1L4       0.100000
     15 CAM          4.2950    -2.2650    -2.0370 c5         1 1L4      -0.094400
     16 CAN          5.6220    -2.0720    -1.3100 c5         1 1L4      -0.094400
     17 CAS          5.4870    -0.6790    -0.7110 c5         1 1L4       0.100000
     18 N            1.5480     1.6380     0.9690 n7         1 1L4      -0.868300
     19 S1           0.9300     2.4340    -0.3390 sy         1 1L4       1.144600
     20 OAC          0.6520     3.7890     0.1070 o          1 1L4      -0.536500
     21 OAD          1.7460     2.2300    -1.5290 o          1 1L4      -0.536500
     22 CBB         -0.5900     1.5580    -0.5710 ca         1 1L4      -0.248500
     23 CAL         -0.7520     0.7270    -1.6630 ca         1 1L4      -0.036000
     24 CBA         -1.9490     0.0330    -1.8380 ca         1 1L4      -0.073300
     25 CAP         -2.1270    -0.8670    -3.0300 c6         1 1L4      -0.076100
     26 CAO         -3.3070    -1.8140    -2.8510 c6         1 1L4       0.149800
     27 NAU         -4.4990    -1.1360    -2.3770 n7         1 1L4      -0.841400
     28 CAQ         -4.3000    -0.5340    -1.0770 c6         1 1L4       0.197100
     29 CBC         -2.9810     0.1900    -0.9150 ca         1 1L4      -0.102300
     30 CAY         -2.7600     1.0260     0.1730 ca         1 1L4       0.157000
     31 FAE         -3.7480     1.1620     1.0710 f          1 1L4      -0.178000
     32 CAK         -1.5930     1.7210     0.3770 ca         1 1L4      -0.048000
     33 H1           0.2920    -2.3770     0.8340 ha         1 1L4       0.117000
     34 H2          -3.3530    -1.3510     2.8460 ha         1 1L4       0.130000
     35 H3          -2.1500     0.4070     4.1030 ha         1 1L4       0.125000
     36 H4           0.2550     0.7730     3.7270 ha         1 1L4       0.124000
     37 H5           2.3820    -0.0510     2.8390 hc         1 1L4       0.065200
     38 H6           2.4130    -1.5000     1.8510 hc         1 1L4       0.065200
     39 H7           1.5190    -0.1460    -0.0690 h1         1 1L4       0.071700
     40 H8           2.8750    -2.3330    -0.3940 h1         1 1L4       0.053950
     41 H9           2.4450    -1.1810    -1.6640 h1         1 1L4       0.053950
     42 H10          4.0520    -3.3080    -2.2300 hc         1 1L4       0.057950
     43 H11          4.3130    -1.7430    -2.9960 hc         1 1L4       0.057950
     44 H12          5.7340    -2.8160    -0.5180 hc         1 1L4       0.057950
     45 H13          6.4850    -2.1530    -1.9700 hc         1 1L4       0.057950
     46 H14          5.7890     0.0930    -1.4250 h1         1 1L4       0.053950
     47 H15          6.0770    -0.5460     0.1950 h1         1 1L4       0.053950
     48 H16          2.1480     2.2410     1.5260 hn         1 1L4       0.509000
     49 H19          0.0390     0.6100    -2.3920 ha         1 1L4       0.139000
     50 H20         -2.2820    -0.2500    -3.9210 hc         1 1L4       0.057700
     51 H21         -1.2060    -1.4290    -3.2060 hc         1 1L4       0.057700
     52 H22         -3.5300    -2.3140    -3.7950 h1         1 1L4       0.064700
     53 H23         -3.0520    -2.5970    -2.1310 h1         1 1L4       0.064700
     54 H24         -4.7640    -0.4190    -3.0410 hn         1 1L4       0.411000
     55 H26         -5.1250     0.1530    -0.8850 h1         1 1L4       0.073700
     56 H27         -4.3680    -1.3110    -0.3070 h1         1 1L4       0.073700
     57 H28         -1.4790     2.3640     1.2400 ha         1 1L4       0.152000
@<TRIPOS>BOND
     1     1     2 3   
     2     2     3 1   
     3     3     4 ar  
     4     3     5 ar  
     5     4     8 ar  
     6     4    33 1   
     7     5     6 ar  
     8     5    34 1   
     9     6     7 ar  
    10     6    35 1   
    11     7     8 ar  
    12     7    36 1   
    13     8     9 1   
    14     9    10 1   
    15     9    37 1   
    16     9    38 1   
    17    10    11 1   
    18    10    18 1   
    19    10    39 1   
    20    11    12 2   
    21    11    13 1   
    22    13    14 1   
    23    13    17 1   
    24    14    15 1   
    25    14    40 1   
    26    14    41 1   
    27    15    16 1   
    28    15    42 1   
    29    15    43 1   
    30    16    17 1   
    31    16    44 1   
    32    16    45 1   
    33    17    46 1   
    34    17    47 1   
    35    18    19 1   
    36    18    48 1   
    37    19    20 2   
    38    19    21 2   
    39    19    22 1   
    40    22    23 ar  
    41    22    32 ar  
    42    23    24 ar  
    43    23    49 1   
    44    24    25 1   
    45    24    29 ar  
    46    25    26 1   
    47    25    50 1   
    48    25    51 1   
    49    26    27 1   
    50    26    52 1   
    51    26    53 1   
    52    27    28 1   
    53    27    54 1   
    54    28    29 1   
    55    28    55 1   
    56    28    56 1   
    57    29    30 ar  
    58    30    31 1   
    59    30    32 ar  
    60    32    57 1   
@<TRIPOS>SUBSTRUCTURE
     1 1L4         1 TEMP              0 ****  ****    0 ROOT
