@<TRIPOS>MOLECULE
1L4
   57    60     1     0     0
SMALL
No Charge or Current Charge


@<TRIPOS>ATOM
      1 NAA         -2.6770    -4.0530     0.3420 n1         1 1L4      -0.454000
      2 CAF         -2.1840    -3.1710     0.9270 cg         1 1L4       0.323000
      3 CAX         -1.5760    -2.0960     1.6610 ca         1 1L4      -0.021000
      4 CD2         -0.2110    -1.8010     1.4780 ca         1 1L4      -0.077000
      5 CAH         -2.3380    -1.3400     2.5720 ca         1 1L4      -0.068000
      6 CAG         -1.7360    -0.2940     3.2930 ca         1 1L4      -0.113000
      7 CD1         -0.3740    -0.0030     3.1090 ca         1 1L4      -0.068000
      8 CG           0.3970    -0.7570     2.2030 ca         1 1L4      -0.079300
      9 CB           1.8720    -0.4350     1.9850 c3         1 1L4      -0.021100
     10 CA           2.0830     0.4690     0.7480 c3         1 1L4       0.136500
     11 C            3.5800     0.4600     0.2750 c          1 1L4       0.585100
     12 O            4.3320     1.3870     0.5640 o          1 1L4      -0.606100
     13 NBE          4.0620    -0.6400    -0.4700 n          1 1L4      -0.401800
     14 CAR          3.2110    -1.7300    -1.0040 c5         1 1L4       0.100000
     15 CAM          4.1610    -2.4050    -2.0270 c5         1 1L4      -0.094400
     16 CAN          5.5410    -2.2290    -1.3480 c5         1 1L4      -0.094400
     17 CAS          5.4740    -0.7510    -0.8910 c5         1 1L4       0.100000
     18 N            1.5730     1.8430     1.0470 n7         1 1L4      -0.868300
     19 S1           0.8930     2.7030    -0.2050 sy         1 1L4       1.144600
     20 OAC          0.5450     3.9990     0.3810 o          1 1L4      -0.536500
     21 OAD          1.8070     2.5720    -1.3410 o          1 1L4      -0.536500
     22 CBB         -0.6130     1.7500    -0.4680 ca         1 1L4      -0.248500
     23 CAL         -0.7080     0.8370    -1.5390 ca         1 1L4      -0.036000
     24 CBA         -1.8780     0.0750    -1.7240 ca         1 1L4      -0.073300
     25 CAP         -1.9640    -0.8980    -2.9050 c6         1 1L4      -0.076100
     26 CAO         -3.1750    -1.8550    -2.8230 c6         1 1L4       0.149800
     27 NAU         -4.3880    -1.1180    -2.4080 n7         1 1L4      -0.841400
     28 CAQ         -4.2610    -0.5800    -1.0310 c6         1 1L4       0.197100
     29 CBC         -2.9740     0.2350    -0.8420 ca         1 1L4      -0.102300
     30 CAY         -2.8660     1.1400     0.2320 ca         1 1L4       0.157000
     31 FAE         -3.8940     1.2920     1.0990 f          1 1L4      -0.178000
     32 CAK         -1.6960     1.8910     0.4220 ca         1 1L4      -0.048000
     33 H1           0.3780    -2.3830     0.7720 ha         1 1L4       0.117000
     34 H2          -3.3930    -1.5580     2.7200 ha         1 1L4       0.130000
     35 H3          -2.3270     0.2940     3.9910 ha         1 1L4       0.125000
     36 H4           0.0820     0.8140     3.6630 ha         1 1L4       0.124000
     37 H5           2.3020     0.0510     2.8700 hc         1 1L4       0.065200
     38 H6           2.4320    -1.3680     1.8560 hc         1 1L4       0.065200
     39 H7           1.4920     0.0250    -0.0610 h1         1 1L4       0.071700
     40 H8           2.9260    -2.4280    -0.2060 h1         1 1L4       0.053950
     41 H9           2.3000    -1.3600    -1.4930 h1         1 1L4       0.053950
     42 H10          3.9040    -3.4540    -2.2090 hc         1 1L4       0.057950
     43 H11          4.1290    -1.8870    -2.9940 hc         1 1L4       0.057950
     44 H12          5.6500    -2.9040    -0.4900 hc         1 1L4       0.057950
     45 H13          6.3790    -2.4210    -2.0270 hc         1 1L4       0.057950
     46 H14          5.6860    -0.0600    -1.7190 h1         1 1L4       0.053950
     47 H15          6.1740    -0.5420    -0.0720 h1         1 1L4       0.053950
     48 H16          2.3770     2.4350     1.2620 hn         1 1L4       0.509000
     49 H19          0.1240     0.7150    -2.2300 ha         1 1L4       0.139000
     50 H20         -2.0290    -0.3170    -3.8350 hc         1 1L4       0.057700
     51 H21         -1.0410    -1.4880    -2.9760 hc         1 1L4       0.057700
     52 H22         -3.3350    -2.3290    -3.8030 h1         1 1L4       0.064700
     53 H23         -2.9640    -2.6570    -2.1000 h1         1 1L4       0.064700
     54 H24         -4.5110    -0.3250    -3.0500 hn         1 1L4       0.411000
     55 H26         -5.1350     0.0500    -0.8040 h1         1 1L4       0.073700
     56 H27         -4.2630    -1.4090    -0.3070 h1         1 1L4       0.073700
     57 H28         -1.6330     2.5750     1.2660 ha         1 1L4       0.152000
@<TRIPOS>BOND
     1     1     2 3   
     2     2     3 1   
     3     3     4 ar  
     4     3     5 ar  
     5     4     8 ar  
     6     4    33 1   
     7     5     6 ar  
     8     5    34 1   
     9     6     7 ar  
    10     6    35 1   
    11     7     8 ar  
    12     7    36 1   
    13     8     9 1   
    14     9    10 1   
    15     9    37 1   
    16     9    38 1   
    17    10    11 1   
    18    10    18 1   
    19    10    39 1   
    20    11    12 2   
    21    11    13 1   
    22    13    14 1   
    23    13    17 1   
    24    14    15 1   
    25    14    40 1   
    26    14    41 1   
    27    15    16 1   
    28    15    42 1   
    29    15    43 1   
    30    16    17 1   
    31    16    44 1   
    32    16    45 1   
    33    17    46 1   
    34    17    47 1   
    35    18    19 1   
    36    18    48 1   
    37    19    20 2   
    38    19    21 2   
    39    19    22 1   
    40    22    23 ar  
    41    22    32 ar  
    42    23    24 ar  
    43    23    49 1   
    44    24    25 1   
    45    24    29 ar  
    46    25    26 1   
    47    25    50 1   
    48    25    51 1   
    49    26    27 1   
    50    26    52 1   
    51    26    53 1   
    52    27    28 1   
    53    27    54 1   
    54    28    29 1   
    55    28    55 1   
    56    28    56 1   
    57    29    30 ar  
    58    30    31 1   
    59    30    32 ar  
    60    32    57 1   
@<TRIPOS>SUBSTRUCTURE
     1 1L4         1 TEMP              0 ****  ****    0 ROOT
