@<TRIPOS>MOLECULE
1L5
   21    21     1     0     0
SMALL
abcg2


@<TRIPOS>ATOM
      1 C1          -0.5090    -0.4070     0.1820 ce         1 1L5       0.075600
      2 C2           0.9370    -0.1250     0.0750 ca         1 1L5      -0.096800
      3 C3           1.7910    -1.0700    -0.4980 ca         1 1L5      -0.083500
      4 C4           3.1440    -0.8040    -0.6380 ca         1 1L5      -0.111500
      5 C5           3.6700     0.4000    -0.1850 ca         1 1L5      -0.088000
      6 C6           2.8320     1.3380     0.4040 ca         1 1L5      -0.111500
      7 C7           1.4760     1.0810     0.5280 ca         1 1L5      -0.083500
      8 C8          -1.3320     0.6180    -0.0940 c2         1 1L5      -0.314100
      9 O1          -3.3350    -0.4670     0.1870 o          1 1L5      -0.410500
     10 N           -2.7570     0.5770    -0.0290 no         1 1L5       0.669100
     11 O           -3.3330     1.6320    -0.2100 o          1 1L5      -0.410500
     12 C           -0.9170    -1.7940     0.5760 c3         1 1L5      -0.071900
     13 H1           1.3970    -2.0120    -0.8590 ha         1 1L5       0.119500
     14 H2           3.7890    -1.5400    -1.1000 ha         1 1L5       0.120500
     15 H3           4.7280     0.6010    -0.2840 ha         1 1L5       0.119000
     16 H4           3.2360     2.2700     0.7750 ha         1 1L5       0.120500
     17 H5           0.8380     1.8130     1.0090 ha         1 1L5       0.119500
     18 H6          -0.9670     1.5860    -0.4010 h4         1 1L5       0.233000
     19 H7          -1.5790    -1.7770     1.4400 hc         1 1L5       0.068033
     20 H8          -1.4530    -2.2980    -0.2280 hc         1 1L5       0.068033
     21 H9          -0.0480    -2.3910     0.8370 hc         1 1L5       0.068033
@<TRIPOS>BOND
     1     1     2 1   
     2     1     8 2   
     3     1    12 1   
     4     2     3 ar  
     5     2     7 ar  
     6     3     4 ar  
     7     3    13 1   
     8     4     5 ar  
     9     4    14 1   
    10     5     6 ar  
    11     5    15 1   
    12     6     7 ar  
    13     6    16 1   
    14     7    17 1   
    15     8    10 1   
    16     8    18 1   
    17     9    10 1   
    18    10    11 1   
    19    12    19 1   
    20    12    20 1   
    21    12    21 1   
@<TRIPOS>SUBSTRUCTURE
     1 1L5         1 TEMP              0 ****  ****    0 ROOT
