@<TRIPOS>MOLECULE
1L5
   21    21     1     0     0
SMALL
No Charge or Current Charge


@<TRIPOS>ATOM
      1 C1          -0.5150    -0.3770     0.1660 ce         1 1L5       0.075600
      2 C2           0.9500    -0.1180     0.0450 ca         1 1L5      -0.096800
      3 C3           1.7900    -1.0520    -0.5980 ca         1 1L5      -0.083500
      4 C4           3.1690    -0.8070    -0.7140 ca         1 1L5      -0.111500
      5 C5           3.7220     0.3730    -0.1890 ca         1 1L5      -0.088000
      6 C6           2.8930     1.3080     0.4530 ca         1 1L5      -0.111500
      7 C7           1.5130     1.0640     0.5690 ca         1 1L5      -0.083500
      8 C8          -1.3910     0.6200    -0.1240 c2         1 1L5      -0.314100
      9 O1          -3.3990    -0.5430    -0.1940 o          1 1L5      -0.410500
     10 N           -2.8430     0.5510    -0.0500 no         1 1L5       0.669100
     11 O           -3.4480     1.6270    -0.0370 o          1 1L5      -0.410500
     12 C           -0.9100    -1.7520     0.6900 c3         1 1L5      -0.071900
     13 H1           1.3740    -1.9660    -1.0160 ha         1 1L5       0.119500
     14 H2           3.8100    -1.5310    -1.2130 ha         1 1L5       0.120500
     15 H3           4.7900     0.5620    -0.2780 ha         1 1L5       0.119000
     16 H4           3.3190     2.2220     0.8620 ha         1 1L5       0.120500
     17 H5           0.8840     1.7930     1.0750 ha         1 1L5       0.119500
     18 H6          -1.0640     1.6010    -0.4520 h4         1 1L5       0.233000
     19 H7          -1.6750    -1.6810     1.4720 hc         1 1L5       0.068033
     20 H8          -1.3030    -2.3840    -0.1150 hc         1 1L5       0.068033
     21 H9          -0.0570    -2.2780     1.1340 hc         1 1L5       0.068033
@<TRIPOS>BOND
     1     1     2 1   
     2     1     8 2   
     3     1    12 1   
     4     2     3 ar  
     5     2     7 ar  
     6     3     4 ar  
     7     3    13 1   
     8     4     5 ar  
     9     4    14 1   
    10     5     6 ar  
    11     5    15 1   
    12     6     7 ar  
    13     6    16 1   
    14     7    17 1   
    15     8    10 1   
    16     8    18 1   
    17     9    10 1   
    18    10    11 1   
    19    12    19 1   
    20    12    20 1   
    21    12    21 1   
@<TRIPOS>SUBSTRUCTURE
     1 1L5         1 TEMP              0 ****  ****    0 ROOT
