@<TRIPOS>MOLECULE
1L6
   59    62     1     0     0
SMALL
No Charge or Current Charge


@<TRIPOS>ATOM
      1 N3           4.1620    -0.8140    -0.1030 nc         1 1L6      -0.509800
      2 C7           1.4910    -3.0350    -0.9310 c3         1 1L6      -0.083100
      3 C6           1.7420    -2.7360     1.5860 c3         1 1L6      -0.083100
      4 C9           3.4650    -5.0830     0.3810 c3         1 1L6      -0.088100
      5 C13         -3.5010    -1.0440     0.0040 ca         1 1L6      -0.117500
      6 C20         -6.4560    -1.2960    -0.7100 cc         1 1L6      -0.221000
      7 C21         -7.7460    -1.1560    -0.2600 cd         1 1L6       0.237900
      8 C8           3.7160    -3.5650     0.1960 c3         1 1L6      -0.067400
      9 C18         -2.1210    -0.8160    -0.1340 ca         1 1L6      -0.072500
     10 C16         -2.5670     1.4740    -0.8080 ca         1 1L6      -0.072500
     11 C26          2.4770     2.5170    -0.4990 c          1 1L6       0.600600
     12 O31          3.2280     3.4580    -0.3040 o          1 1L6      -0.553000
     13 C1           2.8660     1.0990    -0.3120 cc         1 1L6      -0.225600
     14 N4           4.1460     0.5520    -0.2480 na         1 1L6       0.171800
     15 C10          5.4280     1.2690    -0.3670 c3         1 1L6       0.084600
     16 C11          5.9460     1.7940     0.9870 c3         1 1L6       0.146600
     17 O25          7.2070     2.4610     0.8130 oh         1 1L6      -0.661000
     18 N27          1.2220     2.7450    -1.0020 ns         1 1L6      -0.495900
     19 C28          0.3990     1.7090    -1.6450 c3         1 1L6       0.024700
     20 C29         -0.1530     0.6770    -0.6670 ce         1 1L6       0.445900
     21 N30          0.6650     0.0310     0.1370 nf         1 1L6      -0.516100
     22 C12          2.0370     0.0140    -0.1210 cd         1 1L6       0.036400
     23 C2           2.8820    -1.1400    -0.0150 cd         1 1L6       0.295300
     24 C5           2.4610    -2.6110     0.2100 c3         1 1L6      -0.061300
     25 C17         -1.6340     0.4380    -0.5670 ca         1 1L6      -0.126900
     26 C15         -3.9460     1.2440    -0.6680 ca         1 1L6      -0.117500
     27 C14         -4.4230    -0.0160    -0.2600 ca         1 1L6       0.012800
     28 N19         -5.7910    -0.2510    -0.1220 na         1 1L6      -0.085300
     29 C23         -6.6530     0.4640     0.6820 cc         1 1L6       0.421800
     30 C24         -6.2940     1.6390     1.5490 c3         1 1L6      -0.122400
     31 N22         -7.8640    -0.0730     0.6010 nd         1 1L6      -0.674000
     32 H1           2.0020    -3.0130    -1.9020 hc         1 1L6       0.038867
     33 H2           1.1000    -4.0470    -0.7740 hc         1 1L6       0.038867
     34 H3           0.6260    -2.3690    -0.9980 hc         1 1L6       0.038867
     35 H4           0.8640    -2.0860     1.6470 hc         1 1L6       0.038867
     36 H5           1.3880    -3.7570     1.7650 hc         1 1L6       0.038867
     37 H6           2.4200    -2.4600     2.4030 hc         1 1L6       0.038867
     38 H7           2.9960    -5.3020     1.3470 hc         1 1L6       0.031033
     39 H8           2.8340    -5.4890    -0.4180 hc         1 1L6       0.031033
     40 H9           4.4190    -5.6220     0.3510 hc         1 1L6       0.031033
     41 H10         -3.8520    -2.0210     0.3290 ha         1 1L6       0.131000
     42 H11         -5.9970    -2.0150    -1.3750 h4         1 1L6       0.159000
     43 H12         -8.5980    -1.7810    -0.5010 h4         1 1L6       0.039100
     44 H13          4.4120    -3.2520     0.9850 hc         1 1L6       0.048200
     45 H14          4.2510    -3.4360    -0.7530 hc         1 1L6       0.048200
     46 H15         -1.4310    -1.6270     0.0900 ha         1 1L6       0.128000
     47 H16         -2.2360     2.4690    -1.0940 ha         1 1L6       0.128000
     48 H17          6.1710     0.5860    -0.7950 h1         1 1L6       0.084700
     49 H18          5.3060     2.1050    -1.0650 h1         1 1L6       0.084700
     50 H19          5.2040     2.4830     1.4140 h1         1 1L6       0.040200
     51 H20          6.0540     0.9480     1.6790 h1         1 1L6       0.040200
     52 H21          7.4900     2.7820     1.7000 ho         1 1L6       0.452000
     53 H22          0.9650     3.7180    -1.1210 hn         1 1L6       0.328500
     54 H23         -0.4140     2.1930    -2.1970 h1         1 1L6       0.067200
     55 H24          1.0120     1.1870    -2.3910 h1         1 1L6       0.067200
     56 H27         -4.6440     2.0510    -0.8790 ha         1 1L6       0.131000
     57 H28         -5.3110     1.4990     2.0140 hc         1 1L6       0.055700
     58 H29         -6.2680     2.5620     0.9590 hc         1 1L6       0.055700
     59 H30         -7.0280     1.7720     2.3520 hc         1 1L6       0.055700
@<TRIPOS>BOND
     1     1    14 1   
     2     1    23 2   
     3     2    24 1   
     4     2    32 1   
     5     2    33 1   
     6     2    34 1   
     7     3    24 1   
     8     3    35 1   
     9     3    36 1   
    10     3    37 1   
    11     4     8 1   
    12     4    38 1   
    13     4    39 1   
    14     4    40 1   
    15     5     9 ar  
    16     5    27 ar  
    17     5    41 1   
    18     6     7 2   
    19     6    28 1   
    20     6    42 1   
    21     7    31 1   
    22     7    43 1   
    23     8    24 1   
    24     8    44 1   
    25     8    45 1   
    26     9    25 ar  
    27     9    46 1   
    28    10    25 ar  
    29    10    26 ar  
    30    10    47 1   
    31    11    12 2   
    32    11    13 1   
    33    11    18 1   
    34    13    14 1   
    35    13    22 2   
    36    14    15 1   
    37    15    16 1   
    38    15    48 1   
    39    15    49 1   
    40    16    17 1   
    41    16    50 1   
    42    16    51 1   
    43    17    52 1   
    44    18    19 1   
    45    18    53 1   
    46    19    20 1   
    47    19    54 1   
    48    19    55 1   
    49    20    21 2   
    50    20    25 1   
    51    21    22 1   
    52    22    23 1   
    53    23    24 1   
    54    26    27 ar  
    55    26    56 1   
    56    27    28 1   
    57    28    29 1   
    58    29    30 1   
    59    29    31 2   
    60    30    57 1   
    61    30    58 1   
    62    30    59 1   
@<TRIPOS>SUBSTRUCTURE
     1 1L6         1 TEMP              0 ****  ****    0 ROOT
