@<TRIPOS>MOLECULE
1L6
   59    62     1     0     0
SMALL
bcc


@<TRIPOS>ATOM
      1 N3           4.0880    -0.7330    -0.1250 nc         1 1L6      -0.509800
      2 C7           1.7440    -3.1720    -1.0430 c3         1 1L6      -0.083100
      3 C6           1.7330    -2.8140     1.4420 c3         1 1L6      -0.083100
      4 C9           3.7290    -4.9420     0.5190 c3         1 1L6      -0.088100
      5 C13         -3.5240    -0.9940     0.0180 ca         1 1L6      -0.135500
      6 C20         -6.5190    -1.1690    -0.5990 cc         1 1L6      -0.253600
      7 C21         -7.7860    -0.9930    -0.1410 cd         1 1L6       0.303200
      8 C8           3.8760    -3.4450     0.2760 c3         1 1L6      -0.067400
      9 C18         -2.1670    -0.8160    -0.1650 ca         1 1L6      -0.090500
     10 C16         -2.5490     1.4490    -0.8540 ca         1 1L6      -0.090500
     11 C26          2.3320     2.4210    -0.4180 c          1 1L6       0.743100
     12 O31          3.0320     3.3170     0.0340 o          1 1L6      -0.628500
     13 C1           2.7370     1.0040    -0.3890 cc         1 1L6      -0.174900
     14 N4           4.0160     0.5790    -0.3050 na         1 1L6       0.150400
     15 C10          5.2500     1.3330    -0.3710 c3         1 1L6       0.055300
     16 C11          5.7820     1.6460     1.0190 c3         1 1L6       0.123400
     17 O25          6.9980     2.3340     0.8470 oh         1 1L6      -0.598800
     18 N27          1.1110     2.6320    -0.9410 ns         1 1L6      -0.562900
     19 C28          0.3580     1.6450    -1.6800 c3         1 1L6       0.024700
     20 C29         -0.2010     0.5740    -0.7740 ce         1 1L6       0.445900
     21 N30          0.5700    -0.2340    -0.1560 nf         1 1L6      -0.516100
     22 C12          1.9390    -0.1280    -0.2330 cd         1 1L6      -0.028900
     23 C2           2.8560    -1.1970    -0.0550 cd         1 1L6       0.360600
     24 C5           2.5560    -2.6630     0.1550 c3         1 1L6      -0.061300
     25 C17         -1.6560     0.4080    -0.6050 ca         1 1L6      -0.126900
     26 C15         -3.9130     1.2770    -0.6740 ca         1 1L6      -0.135500
     27 C14         -4.4020     0.0560    -0.2330 ca         1 1L6       0.012800
     28 N19         -5.7870    -0.1390    -0.0530 na         1 1L6      -0.136000
     29 C23         -6.6380     0.6000     0.7170 cc         1 1L6       0.421800
     30 C24         -6.2240     1.7860     1.5120 c3         1 1L6      -0.122400
     31 N22         -7.8460     0.1010     0.6780 nd         1 1L6      -0.674000
     32 H1           2.3300    -3.1230    -1.9630 hc         1 1L6       0.038867
     33 H2           1.4380    -4.2090    -0.8980 hc         1 1L6       0.038867
     34 H3           0.8380    -2.5840    -1.1890 hc         1 1L6       0.038867
     35 H4           0.8110    -2.2360     1.3940 hc         1 1L6       0.038867
     36 H5           1.4590    -3.8570     1.6100 hc         1 1L6       0.038867
     37 H6           2.2990    -2.4740     2.3120 hc         1 1L6       0.038867
     38 H7           3.2480    -5.1640     1.4720 hc         1 1L6       0.031033
     39 H8           3.1580    -5.4380    -0.2670 hc         1 1L6       0.031033
     40 H9           4.7140    -5.4100     0.5430 hc         1 1L6       0.031033
     41 H10         -3.9030    -1.9460     0.3680 ha         1 1L6       0.149000
     42 H11         -6.0790    -1.8940    -1.2630 h4         1 1L6       0.177000
     43 H12         -8.6560    -1.5940    -0.3560 h4         1 1L6       0.039100
     44 H13          4.4680    -3.0150     1.0880 hc         1 1L6       0.048200
     45 H14          4.4640    -3.2940    -0.6340 hc         1 1L6       0.048200
     46 H15         -1.4900    -1.6350     0.0350 ha         1 1L6       0.146000
     47 H16         -2.1990     2.4170    -1.1850 ha         1 1L6       0.146000
     48 H17          5.9680     0.7260    -0.9230 h1         1 1L6       0.084700
     49 H18          5.0800     2.2490    -0.9320 h1         1 1L6       0.084700
     50 H19          5.0420     2.2440     1.5610 h1         1 1L6       0.040200
     51 H20          5.9170     0.7070     1.5690 h1         1 1L6       0.040200
     52 H21          7.3510     2.5450     1.7150 ho         1 1L6       0.413000
     53 H22          0.7590     3.5780    -0.9130 hn         1 1L6       0.328500
     54 H23         -0.4150     2.1650    -2.2360 h1         1 1L6       0.067200
     55 H24          0.9980     1.1560    -2.4230 h1         1 1L6       0.067200
     56 H27         -4.5890     2.0930    -0.8910 ha         1 1L6       0.149000
     57 H28         -5.2640     1.6340     2.0030 hc         1 1L6       0.055700
     58 H29         -6.1430     2.6850     0.9000 hc         1 1L6       0.055700
     59 H30         -6.9730     1.9760     2.2770 hc         1 1L6       0.055700
@<TRIPOS>BOND
     1     1    14 1   
     2     1    23 2   
     3     2    24 1   
     4     2    32 1   
     5     2    33 1   
     6     2    34 1   
     7     3    24 1   
     8     3    35 1   
     9     3    36 1   
    10     3    37 1   
    11     4     8 1   
    12     4    38 1   
    13     4    39 1   
    14     4    40 1   
    15     5     9 ar  
    16     5    27 ar  
    17     5    41 1   
    18     6     7 2   
    19     6    28 1   
    20     6    42 1   
    21     7    31 1   
    22     7    43 1   
    23     8    24 1   
    24     8    44 1   
    25     8    45 1   
    26     9    25 ar  
    27     9    46 1   
    28    10    25 ar  
    29    10    26 ar  
    30    10    47 1   
    31    11    12 2   
    32    11    13 1   
    33    11    18 1   
    34    13    14 1   
    35    13    22 2   
    36    14    15 1   
    37    15    16 1   
    38    15    48 1   
    39    15    49 1   
    40    16    17 1   
    41    16    50 1   
    42    16    51 1   
    43    17    52 1   
    44    18    19 1   
    45    18    53 1   
    46    19    20 1   
    47    19    54 1   
    48    19    55 1   
    49    20    21 2   
    50    20    25 1   
    51    21    22 1   
    52    22    23 1   
    53    23    24 1   
    54    26    27 ar  
    55    26    56 1   
    56    27    28 1   
    57    28    29 1   
    58    29    30 1   
    59    29    31 2   
    60    30    57 1   
    61    30    58 1   
    62    30    59 1   
@<TRIPOS>SUBSTRUCTURE
     1 1L6         1 TEMP              0 ****  ****    0 ROOT
