@<TRIPOS>MOLECULE
1L7
   33    34     1     0     0
SMALL
abcg2


@<TRIPOS>ATOM
      1 C10          0.9980    -0.3840     0.0510 ce         1 1L7      -0.089900
      2 N12          0.6060     2.0600     0.7650 n1         1 1L7      -0.447000
      3 C13          2.2120    -0.9000    -0.1970 cf         1 1L7      -0.036200
      4 C15          4.6260    -0.9170     0.2380 ca         1 1L7      -0.137500
      5 C01         -5.0030     1.1690    -1.1230 ca         1 1L7      -0.111500
      6 C02         -5.8990     1.3190    -0.0700 ca         1 1L7      -0.099000
      7 C03         -5.7330     0.5740     1.0870 ca         1 1L7      -0.111500
      8 C04         -4.6750    -0.3220     1.1930 ca         1 1L7      -0.093000
      9 C05         -3.7770    -0.4810     0.1440 ca         1 1L7      -0.120300
     10 C06         -3.9480     0.2760    -1.0140 ca         1 1L7      -0.093000
     11 C07         -2.6310    -1.4500     0.2480 c3         1 1L7       0.149300
     12 N08         -1.3720    -0.7340     0.3220 ns         1 1L7      -0.494900
     13 C09         -0.2090    -1.2790    -0.0500 c          1 1L7       0.618300
     14 C11          0.8120     0.9740     0.4370 cg         1 1L7       0.277700
     15 C14          3.4990    -0.2120    -0.1840 ca         1 1L7      -0.051800
     16 C16          5.8510    -0.2710     0.2640 ca         1 1L7       0.335400
     17 N17          6.0210     0.9870    -0.1240 nb         1 1L7      -0.651000
     18 C18          4.9530     1.6480    -0.5560 ca         1 1L7       0.335400
     19 C19          3.6790     1.1040    -0.6030 ca         1 1L7      -0.137500
     20 O20         -0.0960    -2.4210    -0.4640 o          1 1L7      -0.602100
     21 H2           2.2470    -1.9640    -0.4060 ha         1 1L7       0.217000
     22 H4           4.5510    -1.9500     0.5520 ha         1 1L7       0.131000
     23 H5          -5.1300     1.7450    -2.0300 ha         1 1L7       0.116000
     24 H6          -6.7260     2.0120    -0.1570 ha         1 1L7       0.115000
     25 H7          -6.4260     0.6880     1.9110 ha         1 1L7       0.116000
     26 H8          -4.5510    -0.9030     2.0980 ha         1 1L7       0.116000
     27 H9          -3.2570     0.1560    -1.8410 ha         1 1L7       0.116000
     28 H10         -2.7630    -2.0990     1.1190 h1         1 1L7       0.061700
     29 H11         -2.6080    -2.0970    -0.6290 h1         1 1L7       0.061700
     30 H12         -1.3930     0.1820     0.7450 hn         1 1L7       0.329500
     31 H13          6.7330    -0.8000     0.6040 h4         1 1L7       0.024600
     32 H14          5.1140     2.6670    -0.8890 h4         1 1L7       0.024600
     33 H15          2.8670     1.6960    -0.9990 ha         1 1L7       0.131000
@<TRIPOS>BOND
     1     1     3 2   
     2     1    13 1   
     3     1    14 1   
     4     2    14 3   
     5     3    15 1   
     6     3    21 1   
     7     4    15 ar  
     8     4    16 ar  
     9     4    22 1   
    10     5     6 ar  
    11     5    10 ar  
    12     5    23 1   
    13     6     7 ar  
    14     6    24 1   
    15     7     8 ar  
    16     7    25 1   
    17     8     9 ar  
    18     8    26 1   
    19     9    10 ar  
    20     9    11 1   
    21    10    27 1   
    22    11    12 1   
    23    11    28 1   
    24    11    29 1   
    25    12    13 1   
    26    12    30 1   
    27    13    20 2   
    28    15    19 ar  
    29    16    17 ar  
    30    16    31 1   
    31    17    18 ar  
    32    18    19 ar  
    33    18    32 1   
    34    19    33 1   
@<TRIPOS>SUBSTRUCTURE
     1 1L7         1 TEMP              0 ****  ****    0 ROOT
