@<TRIPOS>MOLECULE
1L7
   33    34     1     0     0
SMALL
No Charge or Current Charge


@<TRIPOS>ATOM
      1 C10          1.0160    -0.3650    -0.0470 ce         1 1L7      -0.089900
      2 N12          0.4990     2.1520     0.3330 n1         1 1L7      -0.447000
      3 C13          2.2910    -0.8730    -0.1050 cf         1 1L7      -0.036200
      4 C15          4.7240    -0.9400     0.4540 ca         1 1L7      -0.137500
      5 C01         -5.5220     1.0080    -1.0470 ca         1 1L7      -0.111500
      6 C02         -6.0580     1.2890     0.2210 ca         1 1L7      -0.099000
      7 C03         -5.5020     0.6920     1.3650 ca         1 1L7      -0.111500
      8 C04         -4.4120    -0.1870     1.2420 ca         1 1L7      -0.093000
      9 C05         -3.8730    -0.4750    -0.0280 ca         1 1L7      -0.120300
     10 C06         -4.4320     0.1280    -1.1710 ca         1 1L7      -0.093000
     11 C07         -2.6900    -1.4210    -0.1610 c3         1 1L7       0.149300
     12 N08         -1.4290    -0.6910    -0.0730 ns         1 1L7      -0.494900
     13 C09         -0.1810    -1.2750    -0.1580 c          1 1L7       0.618300
     14 C11          0.7590     1.0270     0.1610 cg         1 1L7       0.277700
     15 C14          3.6200    -0.2180    -0.0400 ca         1 1L7      -0.051800
     16 C16          5.9900    -0.3310     0.5100 ca         1 1L7       0.335400
     17 N17          6.2170     0.9360     0.0940 nb         1 1L7      -0.651000
     18 C18          5.1650     1.6300    -0.3980 ca         1 1L7       0.335400
     19 C19          3.8670     1.0970    -0.4870 ca         1 1L7      -0.137500
     20 O20         -0.0730    -2.4850    -0.3180 o          1 1L7      -0.602100
     21 H2           2.3750    -1.9560    -0.2200 ha         1 1L7       0.217000
     22 H4           4.6110    -1.9620     0.8050 ha         1 1L7       0.131000
     23 H5          -5.9500     1.4710    -1.9330 ha         1 1L7       0.116000
     24 H6          -6.9010     1.9700     0.3170 ha         1 1L7       0.115000
     25 H7          -5.9150     0.9110     2.3480 ha         1 1L7       0.116000
     26 H8          -3.9860    -0.6440     2.1330 ha         1 1L7       0.116000
     27 H9          -4.0210    -0.0820    -2.1570 ha         1 1L7       0.116000
     28 H10         -2.7240    -2.1760     0.6360 h1         1 1L7       0.061700
     29 H11         -2.7360    -1.9430    -1.1260 h1         1 1L7       0.061700
     30 H12         -1.4670     0.3130     0.0590 hn         1 1L7       0.329500
     31 H13          6.8500    -0.8760     0.8980 h4         1 1L7       0.024600
     32 H14          5.3720     2.6430    -0.7410 h4         1 1L7       0.024600
     33 H15          3.0870     1.7090    -0.9250 ha         1 1L7       0.131000
@<TRIPOS>BOND
     1     1     3 2   
     2     1    13 1   
     3     1    14 1   
     4     2    14 3   
     5     3    15 1   
     6     3    21 1   
     7     4    15 ar  
     8     4    16 ar  
     9     4    22 1   
    10     5     6 ar  
    11     5    10 ar  
    12     5    23 1   
    13     6     7 ar  
    14     6    24 1   
    15     7     8 ar  
    16     7    25 1   
    17     8     9 ar  
    18     8    26 1   
    19     9    10 ar  
    20     9    11 1   
    21    10    27 1   
    22    11    12 1   
    23    11    28 1   
    24    11    29 1   
    25    12    13 1   
    26    12    30 1   
    27    13    20 2   
    28    15    19 ar  
    29    16    17 ar  
    30    16    31 1   
    31    17    18 ar  
    32    18    19 ar  
    33    18    32 1   
    34    19    33 1   
@<TRIPOS>SUBSTRUCTURE
     1 1L7         1 TEMP              0 ****  ****    0 ROOT
