@<TRIPOS>MOLECULE
1L8
   59    62     1     0     0
SMALL
No Charge or Current Charge


@<TRIPOS>ATOM
      1 FAE        -19.5980    -0.1030    -9.7270 f          1 1L8      -0.111333
      2 CBG        -18.7620     0.9550    -9.6260 c3         1 1L8       0.344300
      3 FAF        -19.0800     1.6020    -8.4820 f          1 1L8      -0.111333
      4 FAG        -19.0670     1.7930   -10.6440 f          1 1L8      -0.111333
      5 CBB        -17.2960     0.5100    -9.6320 ca         1 1L8      -0.189300
      6 CD2        -16.7900    -0.2190    -8.5350 ca         1 1L8      -0.062000
      7 CAJ        -16.4360     0.8080   -10.7120 ca         1 1L8      -0.058000
      8 CAH        -15.0960     0.3880   -10.6860 ca         1 1L8      -0.106000
      9 CD1        -14.5990    -0.3260    -9.5850 ca         1 1L8      -0.078000
     10 CG         -15.4440    -0.6330    -8.5020 ca         1 1L8      -0.100300
     11 CB         -14.8850    -1.3530    -7.2760 c3         1 1L8      -0.048100
     12 CA         -14.0380    -0.3970    -6.4030 c3         1 1L8       0.164500
     13 C          -13.3410    -1.1530    -5.2050 c          1 1L8       0.605100
     14 O          -13.7980    -1.1210    -4.0640 o          1 1L8      -0.582100
     15 NBF        -12.1790    -1.9170    -5.4670 n          1 1L8      -0.418800
     16 CAR        -11.4220    -1.8840    -6.7420 c5         1 1L8       0.102500
     17 CAN        -10.0830    -2.5540    -6.3390 c5         1 1L8      -0.092900
     18 CAO        -10.5430    -3.5810    -5.2760 c5         1 1L8      -0.092900
     19 CAS        -11.5130    -2.7250    -4.4240 c5         1 1L8       0.102500
     20 N          -14.9030     0.7590    -6.0140 n7         1 1L8      -0.879300
     21 SBH        -14.1660     2.2220    -5.7160 sy         1 1L8       1.192600
     22 OAB        -12.7520     1.9410    -5.4530 o          1 1L8      -0.533000
     23 OAC        -15.0280     2.9130    -4.7550 o          1 1L8      -0.533000
     24 CBC        -14.3550     2.9110    -7.3630 ca         1 1L8      -0.290500
     25 CAM        -15.5670     3.5280    -7.7380 ca         1 1L8      -0.025000
     26 CBA        -15.7480     4.0040    -9.0510 ca         1 1L8      -0.066300
     27 CAQ        -17.0710     4.6750    -9.4350 c6         1 1L8      -0.079100
     28 CAP        -17.2490     4.8400   -10.9600 c6         1 1L8       0.149800
     29 NAV        -16.0010     5.3440   -11.5700 n7         1 1L8      -0.840400
     30 CAT        -14.8930     4.3660   -11.4440 c6         1 1L8       0.195100
     31 CBD        -14.7060     3.8770   -10.0010 ca         1 1L8      -0.105300
     32 CAZ        -13.5000     3.2580    -9.6210 ca         1 1L8       0.148000
     33 FAD        -12.5020     3.1030   -10.5210 f          1 1L8      -0.183000
     34 CAL        -13.3210     2.7770    -8.3150 ca         1 1L8      -0.060000
     35 H1         -17.4450    -0.4540    -7.6970 ha         1 1L8       0.135000
     36 H2         -16.7970     1.3630   -11.5750 ha         1 1L8       0.133000
     37 H3         -14.4390     0.6250   -11.5200 ha         1 1L8       0.127000
     38 H4         -13.5560    -0.6320    -9.5720 ha         1 1L8       0.118000
     39 H5         -15.6940    -1.7750    -6.6660 hc         1 1L8       0.075700
     40 H6         -14.2710    -2.2050    -7.5930 hc         1 1L8       0.075700
     41 H7         -13.2350    -0.0300    -7.0550 h1         1 1L8       0.055700
     42 H8         -11.2580    -0.8650    -7.1140 h1         1 1L8       0.052700
     43 H9         -11.9390    -2.4650    -7.5170 h1         1 1L8       0.052700
     44 H10         -9.5740    -3.0200    -7.1910 hc         1 1L8       0.057450
     45 H11         -9.3920    -1.8210    -5.9050 hc         1 1L8       0.057450
     46 H12        -11.0640    -4.4270    -5.7390 hc         1 1L8       0.057450
     47 H13         -9.7130    -3.9860    -4.6860 hc         1 1L8       0.057450
     48 H14        -10.9730    -2.0790    -3.7190 h1         1 1L8       0.052700
     49 H15        -12.2210    -3.3470    -3.8600 h1         1 1L8       0.052700
     50 H16        -15.4170     1.0270    -6.8510 hn         1 1L8       0.500000
     51 H17        -16.3770     3.6300    -7.0170 ha         1 1L8       0.136000
     52 H18        -17.1170     5.6630    -8.9590 hc         1 1L8       0.066200
     53 H19        -17.9180     4.1030    -9.0320 hc         1 1L8       0.066200
     54 H20        -18.0780     5.5360   -11.1610 h1         1 1L8       0.059200
     55 H21        -17.5140     3.8710   -11.4110 h1         1 1L8       0.059200
     56 H22        -15.7300     6.2000   -11.0720 hn         1 1L8       0.414000
     57 H24        -15.0950     3.4940   -12.0840 h1         1 1L8       0.071700
     58 H25        -13.9590     4.8240   -11.8050 h1         1 1L8       0.071700
     59 H26        -12.3820     2.2910    -8.0560 ha         1 1L8       0.154000
@<TRIPOS>BOND
     1     1     2 1   
     2     2     3 1   
     3     2     4 1   
     4     2     5 1   
     5     5     6 ar  
     6     5     7 ar  
     7     6    10 ar  
     8     6    35 1   
     9     7     8 ar  
    10     7    36 1   
    11     8     9 ar  
    12     8    37 1   
    13     9    10 ar  
    14     9    38 1   
    15    10    11 1   
    16    11    12 1   
    17    11    39 1   
    18    11    40 1   
    19    12    13 1   
    20    12    20 1   
    21    12    41 1   
    22    13    14 2   
    23    13    15 1   
    24    15    16 1   
    25    15    19 1   
    26    16    17 1   
    27    16    42 1   
    28    16    43 1   
    29    17    18 1   
    30    17    44 1   
    31    17    45 1   
    32    18    19 1   
    33    18    46 1   
    34    18    47 1   
    35    19    48 1   
    36    19    49 1   
    37    20    21 1   
    38    20    50 1   
    39    21    22 2   
    40    21    23 2   
    41    21    24 1   
    42    24    25 ar  
    43    24    34 ar  
    44    25    26 ar  
    45    25    51 1   
    46    26    27 1   
    47    26    31 ar  
    48    27    28 1   
    49    27    52 1   
    50    27    53 1   
    51    28    29 1   
    52    28    54 1   
    53    28    55 1   
    54    29    30 1   
    55    29    56 1   
    56    30    31 1   
    57    30    57 1   
    58    30    58 1   
    59    31    32 ar  
    60    32    33 1   
    61    32    34 ar  
    62    34    59 1   
@<TRIPOS>SUBSTRUCTURE
     1 1L8         1 TEMP              0 ****  ****    0 ROOT
