@<TRIPOS>MOLECULE
1L8
   59    62     1     0     0
SMALL
abcg2


@<TRIPOS>ATOM
      1 FAE        -19.8420    -0.0890    -8.5950 f          1 1L8      -0.111333
      2 CBG        -19.1370     0.7330    -9.4000 c3         1 1L8       0.344300
      3 FAF        -19.3810     1.9960    -8.9580 f          1 1L8      -0.111333
      4 FAG        -19.6960     0.6520   -10.6280 f          1 1L8      -0.111333
      5 CBB        -17.6720     0.4160    -9.4170 ca         1 1L8      -0.189300
      6 CD2        -17.0930    -0.2640    -8.3490 ca         1 1L8      -0.062000
      7 CAJ        -16.8940     0.8420   -10.4880 ca         1 1L8      -0.058000
      8 CAH        -15.5290     0.5890   -10.4790 ca         1 1L8      -0.106000
      9 CD1        -14.9520    -0.0950    -9.4180 ca         1 1L8      -0.078000
     10 CG         -15.7290    -0.5350    -8.3450 ca         1 1L8      -0.100300
     11 CB         -15.1000    -1.2860    -7.2010 c3         1 1L8      -0.048100
     12 CA         -14.1580    -0.4100    -6.3590 c3         1 1L8       0.164500
     13 C          -13.4540    -1.2960    -5.3240 c          1 1L8       0.605100
     14 O          -14.0200    -1.5990    -4.2710 o          1 1L8      -0.582100
     15 NBF        -12.2470    -1.7690    -5.6610 n          1 1L8      -0.418800
     16 CAR        -11.4630    -1.4300    -6.8640 c5         1 1L8       0.102500
     17 CAN        -10.0990    -2.0630    -6.5860 c5         1 1L8      -0.092900
     18 CAO        -10.4400    -3.2790    -5.7180 c5         1 1L8      -0.092900
     19 CAS        -11.5620    -2.7630    -4.8200 c5         1 1L8       0.102500
     20 N          -14.9020     0.6580    -5.6960 n7         1 1L8      -0.879300
     21 SBH        -14.2700     2.1600    -5.6460 sy         1 1L8       1.192600
     22 OAB        -12.8900     2.0130    -5.2470 o          1 1L8      -0.533000
     23 OAC        -15.1740     2.9550    -4.8500 o          1 1L8      -0.533000
     24 CBC        -14.2790     2.7970    -7.3010 ca         1 1L8      -0.290500
     25 CAM        -15.4570     3.3050    -7.8320 ca         1 1L8      -0.025000
     26 CBA        -15.4810     3.8070    -9.1310 ca         1 1L8      -0.066300
     27 CAQ        -16.7520     4.3910    -9.6960 c6         1 1L8      -0.079100
     28 CAP        -16.6960     4.5420   -11.2160 c6         1 1L8       0.149800
     29 NAV        -15.4420     5.1380   -11.6800 n7         1 1L8      -0.840400
     30 CAT        -14.2960     4.3090   -11.3250 c6         1 1L8       0.195100
     31 CBD        -14.3150     3.7840    -9.9050 ca         1 1L8      -0.105300
     32 CAZ        -13.1710     3.2410    -9.3380 ca         1 1L8       0.148000
     33 FAD        -12.0420     3.1970   -10.0930 f          1 1L8      -0.183000
     34 CAL        -13.1080     2.7510    -8.0510 ca         1 1L8      -0.060000
     35 H1         -17.7060    -0.5970    -7.5220 ha         1 1L8       0.135000
     36 H2         -17.3470     1.3650   -11.3180 ha         1 1L8       0.133000
     37 H3         -14.9150     0.9290   -11.3030 ha         1 1L8       0.127000
     38 H4         -13.8870    -0.2910    -9.4230 ha         1 1L8       0.118000
     39 H5         -15.8710    -1.6990    -6.5480 hc         1 1L8       0.075700
     40 H6         -14.5160    -2.1250    -7.5850 hc         1 1L8       0.075700
     41 H7         -13.4250     0.0350    -7.0270 h1         1 1L8       0.055700
     42 H8         -11.3970    -0.3520    -6.9970 h1         1 1L8       0.052700
     43 H9         -11.9270    -1.8640    -7.7550 h1         1 1L8       0.052700
     44 H10         -9.5770    -2.3220    -7.5050 hc         1 1L8       0.057450
     45 H11         -9.4760    -1.3640    -6.0240 hc         1 1L8       0.057450
     46 H12        -10.8090    -4.0950    -6.3430 hc         1 1L8       0.057450
     47 H13         -9.5910    -3.6460    -5.1430 hc         1 1L8       0.057450
     48 H14        -11.1710    -2.2810    -3.9190 h1         1 1L8       0.052700
     49 H15        -12.2640    -3.5360    -4.5110 h1         1 1L8       0.052700
     50 H16        -15.9100     0.6470    -5.7820 hn         1 1L8       0.500000
     51 H17        -16.3600     3.3200    -7.2360 ha         1 1L8       0.136000
     52 H18        -16.9170     5.3750    -9.2450 hc         1 1L8       0.066200
     53 H19        -17.6000     3.7680    -9.4030 hc         1 1L8       0.066200
     54 H20        -17.5310     5.1540   -11.5620 h1         1 1L8       0.059200
     55 H21        -16.7910     3.5640   -11.6930 h1         1 1L8       0.059200
     56 H22        -15.3320     6.0540   -11.2560 hn         1 1L8       0.414000
     57 H24        -14.2560     3.4510   -12.0070 h1         1 1L8       0.071700
     58 H25        -13.3820     4.8800   -11.4930 h1         1 1L8       0.071700
     59 H26        -12.1850     2.3590    -7.6500 ha         1 1L8       0.154000
@<TRIPOS>BOND
     1     1     2 1   
     2     2     3 1   
     3     2     4 1   
     4     2     5 1   
     5     5     6 ar  
     6     5     7 ar  
     7     6    10 ar  
     8     6    35 1   
     9     7     8 ar  
    10     7    36 1   
    11     8     9 ar  
    12     8    37 1   
    13     9    10 ar  
    14     9    38 1   
    15    10    11 1   
    16    11    12 1   
    17    11    39 1   
    18    11    40 1   
    19    12    13 1   
    20    12    20 1   
    21    12    41 1   
    22    13    14 2   
    23    13    15 1   
    24    15    16 1   
    25    15    19 1   
    26    16    17 1   
    27    16    42 1   
    28    16    43 1   
    29    17    18 1   
    30    17    44 1   
    31    17    45 1   
    32    18    19 1   
    33    18    46 1   
    34    18    47 1   
    35    19    48 1   
    36    19    49 1   
    37    20    21 1   
    38    20    50 1   
    39    21    22 2   
    40    21    23 2   
    41    21    24 1   
    42    24    25 ar  
    43    24    34 ar  
    44    25    26 ar  
    45    25    51 1   
    46    26    27 1   
    47    26    31 ar  
    48    27    28 1   
    49    27    52 1   
    50    27    53 1   
    51    28    29 1   
    52    28    54 1   
    53    28    55 1   
    54    29    30 1   
    55    29    56 1   
    56    30    31 1   
    57    30    57 1   
    58    30    58 1   
    59    31    32 ar  
    60    32    33 1   
    61    32    34 ar  
    62    34    59 1   
@<TRIPOS>SUBSTRUCTURE
     1 1L8         1 TEMP              0 ****  ****    0 ROOT
