@<TRIPOS>MOLECULE
1L9
  173   174     1     0     0
SMALL
No Charge or Current Charge


@<TRIPOS>ATOM
      1 CAZ        -26.7290     5.9950    -0.0400 c3         1 1L9      -0.088100
      2 CAY        -25.3530     6.1050     0.6460 c3         1 1L9      -0.075400
      3 CAX        -24.2310     5.3840    -0.1330 c3         1 1L9      -0.076400
      4 CAW        -22.8510     5.4950     0.5540 c3         1 1L9      -0.074400
      5 CAV        -21.7300     4.7740    -0.2260 c3         1 1L9      -0.074400
      6 CAU        -20.3500     4.8850     0.4600 c3         1 1L9      -0.074400
      7 CAT        -19.2280     4.1640    -0.3190 c3         1 1L9      -0.074400
      8 CAS        -17.8490     4.2760     0.3670 c3         1 1L9      -0.074400
      9 CAR        -16.7270     3.5550    -0.4110 c3         1 1L9      -0.074400
     10 CAQ        -15.3480     3.6660     0.2760 c3         1 1L9      -0.074400
     11 CAP        -14.2260     2.9420    -0.5020 c3         1 1L9      -0.074400
     12 CAO        -12.8480     3.0480     0.1870 c3         1 1L9      -0.074400
     13 CAN        -11.7290     2.3200    -0.5900 c3         1 1L9      -0.074400
     14 CAM        -10.3500     2.4180     0.1010 c3         1 1L9      -0.074400
     15 CAL         -9.2340     1.6860    -0.6760 c3         1 1L9      -0.074400
     16 CAK         -7.8570     1.7730     0.0160 c3         1 1L9      -0.074400
     17 CAJ         -6.7440     1.0400    -0.7640 c3         1 1L9      -0.074400
     18 CAI         -5.3670     1.1160    -0.0690 c3         1 1L9      -0.074400
     19 CAH         -4.2580     0.3800    -0.8510 c3         1 1L9      -0.073400
     20 CAG         -2.8840     0.4380    -0.1490 c3         1 1L9      -0.077400
     21 CAF         -1.7840    -0.3260    -0.9160 c3         1 1L9      -0.073400
     22 CAE         -0.4430    -0.3730    -0.1530 c3         1 1L9      -0.075400
     23 CAD          0.6400    -1.1940    -0.8870 c3         1 1L9      -0.075400
     24 CAC          1.9050    -1.4160    -0.0310 c3         1 1L9      -0.069400
     25 CAB          2.9330    -2.3630    -0.6980 c3         1 1L9      -0.157400
     26 CAA          3.8740    -3.0120     0.3250 c          1 1L9       0.610100
     27 OAA          3.4620    -3.7260     1.2290 o          1 1L9      -0.633100
     28 N2           5.2100    -2.7540     0.1390 ns         1 1L9      -0.489900
     29 C2           6.3030    -3.2700     0.9790 c3         1 1L9       0.091700
     30 C3           7.6650    -2.5310     0.7300 c3         1 1L9       0.130300
     31 O3           8.6000    -2.9530     1.7480 oh         1 1L9      -0.635000
     32 C4           7.5810    -0.9580     0.6890 c3         1 1L9       0.133300
     33 O4           6.7990    -0.5280    -0.4390 oh         1 1L9      -0.641000
     34 C5           8.9690    -0.2620     0.5940 c3         1 1L9      -0.109400
     35 C6           8.9160     1.2870     0.6380 c3         1 1L9      -0.072400
     36 C7          10.3160     1.9380     0.6300 c3         1 1L9      -0.075400
     37 C8          10.2640     3.4810     0.6740 c3         1 1L9      -0.074400
     38 C9          11.6630     4.1350     0.6650 c3         1 1L9      -0.074400
     39 C10         11.6080     5.6780     0.7090 c3         1 1L9      -0.074400
     40 C11         13.0060     6.3340     0.6990 c3         1 1L9      -0.074400
     41 C12         12.9500     7.8760     0.7480 c3         1 1L9      -0.074400
     42 C13         14.3480     8.5320     0.7360 c3         1 1L9      -0.074400
     43 C14         14.2930    10.0740     0.7850 c3         1 1L9      -0.074400
     44 C15         15.6920    10.7290     0.7700 c3         1 1L9      -0.074400
     45 C16         15.6390    12.2720     0.8170 c3         1 1L9      -0.075400
     46 C17         17.0380    12.9250     0.7980 c3         1 1L9      -0.075400
     47 C18         16.9850    14.4650     0.8400 c3         1 1L9      -0.088100
     48 C1           6.4310    -4.8170     0.8510 c3         1 1L9       0.143600
     49 O1A          6.8550    -5.1540    -0.4870 os         1 1L9      -0.468000
     50 C1A          6.7500    -6.5450    -0.8480 c6         1 1L9       0.356300
     51 O6A          5.3570    -6.9030    -0.9920 os         1 1L9      -0.452000
     52 C2A          7.5410    -6.8390    -2.1680 c6         1 1L9       0.116300
     53 O2A          8.9100    -6.3700    -2.0890 oh         1 1L9      -0.709000
     54 C3A          6.8300    -6.1900    -3.3970 c6         1 1L9       0.141300
     55 O3A          7.4950    -6.5840    -4.6130 oh         1 1L9      -0.672000
     56 C4A          5.3220    -6.5770    -3.4500 c6         1 1L9       0.151300
     57 O4A          5.1950    -7.9760    -3.7770 oh         1 1L9      -0.711000
     58 C5M          4.6720    -6.2210    -2.0770 c6         1 1L9       0.166300
     59 C6A          3.1600    -6.5850    -2.0240 c3         1 1L9       0.194600
     60 OAZ          2.5540    -5.8930    -0.9140 os         1 1L9      -0.463100
     61 CCI          1.1930    -5.8510    -0.8370 c          1 1L9       0.646100
     62 OCK          0.4330    -6.3910    -1.6300 o          1 1L9      -0.527000
     63 NCJ          0.8380    -5.0190     0.2070 ns         1 1L9      -0.143000
     64 CCU         -0.4100    -4.4670     0.6000 ca         1 1L9       0.001000
     65 CCL         -0.4690    -3.7750     1.8250 ca         1 1L9      -0.145500
     66 CCQ         -1.6660    -3.1710     2.2500 ca         1 1L9      -0.077000
     67 CCR         -2.8140    -3.2510     1.4470 ca         1 1L9       0.087000
     68 Cl1         -4.3120    -2.4940     1.9730 cl         1 1L9      -0.208000
     69 CCS         -2.7670    -3.9340     0.2220 ca         1 1L9      -0.077000
     70 CCT         -1.5700    -4.5400    -0.2040 ca         1 1L9      -0.145500
     71 H1         -27.0320     4.9460    -0.1360 hc         1 1L9       0.031367
     72 H2         -27.4910     6.5210     0.5470 hc         1 1L9       0.031367
     73 H3         -26.7000     6.4410    -1.0420 hc         1 1L9       0.031367
     74 H4         -25.0940     7.1650     0.7590 hc         1 1L9       0.036700
     75 H5         -25.4230     5.6830     1.6560 hc         1 1L9       0.036700
     76 H6         -24.4930     4.3250    -0.2460 hc         1 1L9       0.036700
     77 H7         -24.1650     5.8070    -1.1440 hc         1 1L9       0.036700
     78 H8         -22.5880     6.5540     0.6660 hc         1 1L9       0.036700
     79 H9         -22.9170     5.0720     1.5640 hc         1 1L9       0.036700
     80 H10        -21.9920     3.7140    -0.3380 hc         1 1L9       0.036700
     81 H11        -21.6640     5.1970    -1.2360 hc         1 1L9       0.036700
     82 H12        -20.0870     5.9440     0.5720 hc         1 1L9       0.037200
     83 H13        -20.4150     4.4620     1.4710 hc         1 1L9       0.037200
     84 H14        -19.4910     3.1040    -0.4300 hc         1 1L9       0.036700
     85 H15        -19.1630     4.5860    -1.3300 hc         1 1L9       0.036700
     86 H16        -17.5860     5.3350     0.4780 hc         1 1L9       0.037200
     87 H17        -17.9140     3.8540     1.3780 hc         1 1L9       0.037200
     88 H18        -16.9890     2.4950    -0.5220 hc         1 1L9       0.036700
     89 H19        -16.6610     3.9760    -1.4220 hc         1 1L9       0.036700
     90 H20        -15.0840     4.7250     0.3860 hc         1 1L9       0.037200
     91 H21        -15.4140     3.2450     1.2870 hc         1 1L9       0.037200
     92 H22        -14.4920     1.8830    -0.6140 hc         1 1L9       0.036700
     93 H23        -14.1580     3.3650    -1.5120 hc         1 1L9       0.036700
     94 H24        -12.5800     4.1070     0.2970 hc         1 1L9       0.037700
     95 H25        -12.9170     2.6270     1.1980 hc         1 1L9       0.037700
     96 H26        -11.9990     1.2630    -0.7050 hc         1 1L9       0.036700
     97 H27        -11.6560     2.7440    -1.5990 hc         1 1L9       0.036700
     98 H28        -10.0780     3.4740     0.2150 hc         1 1L9       0.037700
     99 H29        -10.4230     1.9940     1.1110 hc         1 1L9       0.037700
    100 H30         -9.5110     0.6310    -0.7960 hc         1 1L9       0.036700
    101 H31         -9.1580     2.1140    -1.6840 hc         1 1L9       0.036700
    102 H32         -7.5790     2.8280     0.1360 hc         1 1L9       0.037700
    103 H33         -7.9330     1.3450     1.0240 hc         1 1L9       0.037700
    104 H34         -7.0260    -0.0130    -0.8880 hc         1 1L9       0.035700
    105 H35         -6.6650     1.4710    -1.7690 hc         1 1L9       0.035700
    106 H36         -5.0830     2.1680     0.0560 hc         1 1L9       0.039200
    107 H37         -5.4460     0.6830     0.9360 hc         1 1L9       0.039200
    108 H38         -4.5490    -0.6700    -0.9820 hc         1 1L9       0.035700
    109 H39         -4.1700     0.8160    -1.8540 hc         1 1L9       0.035700
    110 H40         -2.5800     1.4850    -0.0290 hc         1 1L9       0.040700
    111 H41         -2.9790     0.0160     0.8590 hc         1 1L9       0.040700
    112 H42         -2.1240    -1.3520    -1.1010 hc         1 1L9       0.036200
    113 H43         -1.6300     0.1420    -1.8960 hc         1 1L9       0.036200
    114 H44         -0.0770     0.6480     0.0110 hc         1 1L9       0.042700
    115 H45         -0.6170    -0.8130     0.8360 hc         1 1L9       0.042700
    116 H46          0.2180    -2.1690    -1.1600 hc         1 1L9       0.036700
    117 H47          0.9120    -0.6900    -1.8230 hc         1 1L9       0.036700
    118 H48          2.3820    -0.4540     0.1940 hc         1 1L9       0.055200
    119 H49          1.5940    -1.8430     0.9310 hc         1 1L9       0.055200
    120 H50          2.3960    -3.1700    -1.2070 hc         1 1L9       0.054700
    121 H51          3.5060    -1.8140    -1.4550 hc         1 1L9       0.054700
    122 H52          5.4560    -2.0920    -0.5910 hn         1 1L9       0.311500
    123 H53          6.0120    -3.0630     2.0180 h1         1 1L9       0.087700
    124 H54          8.0370    -2.8500    -0.2530 h1         1 1L9       0.078700
    125 H55          8.3490    -2.5130     2.5890 ho         1 1L9       0.439000
    126 H56          7.0990    -0.6250     1.6190 h1         1 1L9       0.068700
    127 H57          6.8300     0.4520    -0.4550 ho         1 1L9       0.437000
    128 H58          9.6010    -0.5970     1.4240 hc         1 1L9       0.050200
    129 H59          9.4710    -0.5810    -0.3280 hc         1 1L9       0.050200
    130 H60          8.3500     1.6660    -0.2220 hc         1 1L9       0.044700
    131 H61          8.3790     1.6030     1.5420 hc         1 1L9       0.044700
    132 H62         10.8890     1.5730     1.4920 hc         1 1L9       0.037700
    133 H63         10.8560     1.6200    -0.2710 hc         1 1L9       0.037700
    134 H64          9.6910     3.8460    -0.1880 hc         1 1L9       0.038700
    135 H65          9.7250     3.7980     1.5750 hc         1 1L9       0.038700
    136 H66         12.2370     3.7700     1.5260 hc         1 1L9       0.037200
    137 H67         12.2030     3.8190    -0.2370 hc         1 1L9       0.037200
    138 H68         11.0330     6.0420    -0.1510 hc         1 1L9       0.037700
    139 H69         11.0690     5.9920     1.6120 hc         1 1L9       0.037700
    140 H70         13.5820     5.9670     1.5580 hc         1 1L9       0.037200
    141 H71         13.5440     6.0210    -0.2050 hc         1 1L9       0.037200
    142 H72         12.3730     8.2430    -0.1100 hc         1 1L9       0.037700
    143 H73         12.4140     8.1890     1.6530 hc         1 1L9       0.037700
    144 H74         14.9260     8.1640     1.5930 hc         1 1L9       0.036700
    145 H75         14.8840     8.2200    -0.1700 hc         1 1L9       0.036700
    146 H76         13.7140    10.4420    -0.0710 hc         1 1L9       0.037200
    147 H77         13.7590    10.3870     1.6910 hc         1 1L9       0.037200
    148 H78         16.2710    10.3620     1.6270 hc         1 1L9       0.036700
    149 H79         16.2260    10.4140    -0.1350 hc         1 1L9       0.036700
    150 H80         15.0580    12.6380    -0.0390 hc         1 1L9       0.036700
    151 H81         15.1070    12.5860     1.7240 hc         1 1L9       0.036700
    152 H82         17.6200    12.5640     1.6550 hc         1 1L9       0.036200
    153 H83         17.5730    12.6120    -0.1080 hc         1 1L9       0.036200
    154 H84         17.9990    14.8820     0.8240 hc         1 1L9       0.031367
    155 H85         16.4380    14.8580    -0.0250 hc         1 1L9       0.031367
    156 H86         16.4860    14.8110     1.7540 hc         1 1L9       0.031367
    157 H87          7.1540    -5.1920     1.5860 h1         1 1L9       0.050200
    158 H88          5.4640    -5.2820     1.0800 h1         1 1L9       0.050200
    159 H89          7.1930    -7.1540    -0.0450 h2         1 1L9       0.071700
    160 H90          7.5370    -7.9310    -2.3080 h1         1 1L9       0.065700
    161 H91          8.8820    -5.5460    -1.5460 ho         1 1L9       0.513000
    162 H92          6.8870    -5.0960    -3.2820 h1         1 1L9       0.060700
    163 H93          8.4580    -6.5320    -4.4070 ho         1 1L9       0.470000
    164 H94          4.8400    -5.9670    -4.2300 h1         1 1L9       0.050700
    165 H95          5.9020    -8.1350    -4.4480 ho         1 1L9       0.524000
    166 H96          4.7510    -5.1340    -1.9240 h1         1 1L9       0.053700
    167 H97          2.7010    -6.2680    -2.9700 h1         1 1L9       0.071700
    168 H98          3.0410    -7.6730    -1.9330 h1         1 1L9       0.071700
    169 H99          1.6310    -4.6880     0.7440 hn         1 1L9       0.193000
    170 H100         0.4190    -3.7000     2.4510 ha         1 1L9       0.140500
    171 H101        -1.7030    -2.6390     3.1970 ha         1 1L9       0.129500
    172 H102        -3.6560    -3.9890    -0.4020 ha         1 1L9       0.129500
    173 H103        -1.5600    -5.0440    -1.1650 ha         1 1L9       0.140500
@<TRIPOS>BOND
     1     1     2 1   
     2     1    71 1   
     3     1    72 1   
     4     1    73 1   
     5     2     3 1   
     6     2    74 1   
     7     2    75 1   
     8     3     4 1   
     9     3    76 1   
    10     3    77 1   
    11     4     5 1   
    12     4    78 1   
    13     4    79 1   
    14     5     6 1   
    15     5    80 1   
    16     5    81 1   
    17     6     7 1   
    18     6    82 1   
    19     6    83 1   
    20     7     8 1   
    21     7    84 1   
    22     7    85 1   
    23     8     9 1   
    24     8    86 1   
    25     8    87 1   
    26     9    10 1   
    27     9    88 1   
    28     9    89 1   
    29    10    11 1   
    30    10    90 1   
    31    10    91 1   
    32    11    12 1   
    33    11    92 1   
    34    11    93 1   
    35    12    13 1   
    36    12    94 1   
    37    12    95 1   
    38    13    14 1   
    39    13    96 1   
    40    13    97 1   
    41    14    15 1   
    42    14    98 1   
    43    14    99 1   
    44    15    16 1   
    45    15   100 1   
    46    15   101 1   
    47    16    17 1   
    48    16   102 1   
    49    16   103 1   
    50    17    18 1   
    51    17   104 1   
    52    17   105 1   
    53    18    19 1   
    54    18   106 1   
    55    18   107 1   
    56    19    20 1   
    57    19   108 1   
    58    19   109 1   
    59    20    21 1   
    60    20   110 1   
    61    20   111 1   
    62    21    22 1   
    63    21   112 1   
    64    21   113 1   
    65    22    23 1   
    66    22   114 1   
    67    22   115 1   
    68    23    24 1   
    69    23   116 1   
    70    23   117 1   
    71    24    25 1   
    72    24   118 1   
    73    24   119 1   
    74    25    26 1   
    75    25   120 1   
    76    25   121 1   
    77    26    27 2   
    78    26    28 1   
    79    28    29 1   
    80    28   122 1   
    81    29    30 1   
    82    29    48 1   
    83    29   123 1   
    84    30    31 1   
    85    30    32 1   
    86    30   124 1   
    87    31   125 1   
    88    32    33 1   
    89    32    34 1   
    90    32   126 1   
    91    33   127 1   
    92    34    35 1   
    93    34   128 1   
    94    34   129 1   
    95    35    36 1   
    96    35   130 1   
    97    35   131 1   
    98    36    37 1   
    99    36   132 1   
   100    36   133 1   
   101    37    38 1   
   102    37   134 1   
   103    37   135 1   
   104    38    39 1   
   105    38   136 1   
   106    38   137 1   
   107    39    40 1   
   108    39   138 1   
   109    39   139 1   
   110    40    41 1   
   111    40   140 1   
   112    40   141 1   
   113    41    42 1   
   114    41   142 1   
   115    41   143 1   
   116    42    43 1   
   117    42   144 1   
   118    42   145 1   
   119    43    44 1   
   120    43   146 1   
   121    43   147 1   
   122    44    45 1   
   123    44   148 1   
   124    44   149 1   
   125    45    46 1   
   126    45   150 1   
   127    45   151 1   
   128    46    47 1   
   129    46   152 1   
   130    46   153 1   
   131    47   154 1   
   132    47   155 1   
   133    47   156 1   
   134    48    49 1   
   135    48   157 1   
   136    48   158 1   
   137    49    50 1   
   138    50    51 1   
   139    50    52 1   
   140    50   159 1   
   141    51    58 1   
   142    52    53 1   
   143    52    54 1   
   144    52   160 1   
   145    53   161 1   
   146    54    55 1   
   147    54    56 1   
   148    54   162 1   
   149    55   163 1   
   150    56    57 1   
   151    56    58 1   
   152    56   164 1   
   153    57   165 1   
   154    58    59 1   
   155    58   166 1   
   156    59    60 1   
   157    59   167 1   
   158    59   168 1   
   159    60    61 1   
   160    61    62 2   
   161    61    63 1   
   162    63    64 1   
   163    63   169 1   
   164    64    65 ar  
   165    64    70 ar  
   166    65    66 ar  
   167    65   170 1   
   168    66    67 ar  
   169    66   171 1   
   170    67    68 1   
   171    67    69 ar  
   172    69    70 ar  
   173    69   172 1   
   174    70   173 1   
@<TRIPOS>SUBSTRUCTURE
     1 1L9         1 TEMP              0 ****  ****    0 ROOT
