@<TRIPOS>MOLECULE
1L9
  173   174     1     0     0
SMALL
abcg2


@<TRIPOS>ATOM
      1 CAZ        -27.2210     2.8690    -0.9960 c3         1 1L9      -0.088100
      2 CAY        -25.9830     2.8710    -0.1100 c3         1 1L9      -0.075400
      3 CAX        -24.6860     2.8590    -0.9110 c3         1 1L9      -0.076400
      4 CAW        -23.4360     2.8600    -0.0400 c3         1 1L9      -0.074400
      5 CAV        -22.1430     2.8430    -0.8470 c3         1 1L9      -0.074400
      6 CAU        -20.8900     2.8440     0.0200 c3         1 1L9      -0.074400
      7 CAT        -19.6000     2.8200    -0.7900 c3         1 1L9      -0.074400
      8 CAS        -18.3440     2.8190     0.0740 c3         1 1L9      -0.074400
      9 CAR        -17.0560     2.7830    -0.7400 c3         1 1L9      -0.074400
     10 CAQ        -15.7980     2.7780     0.1210 c3         1 1L9      -0.074400
     11 CAP        -14.5130     2.7240    -0.6960 c3         1 1L9      -0.074400
     12 CAO        -13.2530     2.7120     0.1600 c3         1 1L9      -0.074400
     13 CAN        -11.9720     2.6320    -0.6610 c3         1 1L9      -0.074400
     14 CAM        -10.7070     2.6050     0.1890 c3         1 1L9      -0.074400
     15 CAL         -9.4340     2.4880    -0.6390 c3         1 1L9      -0.074400
     16 CAK         -8.1630     2.4390     0.2010 c3         1 1L9      -0.074400
     17 CAJ         -6.9040     2.2590    -0.6370 c3         1 1L9      -0.074400
     18 CAI         -5.6240     2.1820     0.1870 c3         1 1L9      -0.074400
     19 CAH         -4.3920     1.8880    -0.6590 c3         1 1L9      -0.073400
     20 CAG         -3.1110     1.7680     0.1560 c3         1 1L9      -0.077400
     21 CAF         -1.9350     1.2230    -0.6460 c3         1 1L9      -0.073400
     22 CAE         -0.6780     1.0320     0.1930 c3         1 1L9      -0.075400
     23 CAD          0.4230     0.2770    -0.5390 c3         1 1L9      -0.075400
     24 CAC          1.6500     0.0300     0.3290 c3         1 1L9      -0.069400
     25 CAB          2.6770    -0.8660    -0.3560 c3         1 1L9      -0.157400
     26 CAA          3.6240    -1.5520     0.6080 c          1 1L9       0.610100
     27 OAA          3.2720    -1.8990     1.7340 o          1 1L9      -0.633100
     28 N2           4.8550    -1.7880     0.1360 ns         1 1L9      -0.489900
     29 C2           5.8970    -2.4510     0.8940 c3         1 1L9       0.091700
     30 C3           7.2780    -1.9430     0.4260 c3         1 1L9       0.130300
     31 O3           8.3000    -2.8540     0.7490 oh         1 1L9      -0.635000
     32 C4           7.6350    -0.5550     1.0010 c3         1 1L9       0.133300
     33 O4           6.5580     0.3530     0.9800 oh         1 1L9      -0.641000
     34 C5           8.8750     0.0200     0.3230 c3         1 1L9      -0.109400
     35 C6           9.3790     1.3110     0.9570 c3         1 1L9      -0.072400
     36 C7          10.6390     1.8410     0.2840 c3         1 1L9      -0.075400
     37 C8          11.1520     3.1360     0.9020 c3         1 1L9      -0.074400
     38 C9          12.4160     3.6620     0.2340 c3         1 1L9      -0.074400
     39 C10         12.9300     4.9590     0.8480 c3         1 1L9      -0.074400
     40 C11         14.1970     5.4810     0.1810 c3         1 1L9      -0.074400
     41 C12         14.7110     6.7790     0.7920 c3         1 1L9      -0.074400
     42 C13         15.9790     7.2980     0.1260 c3         1 1L9      -0.074400
     43 C14         16.4930     8.5980     0.7330 c3         1 1L9      -0.074400
     44 C15         17.7620     9.1140     0.0660 c3         1 1L9      -0.074400
     45 C16         18.2760    10.4160     0.6670 c3         1 1L9      -0.075400
     46 C17         19.5430    10.9320    -0.0050 c3         1 1L9      -0.075400
     47 C18         20.0490    12.2370     0.5940 c3         1 1L9      -0.088100
     48 C1           5.7440    -3.9620     0.7910 c3         1 1L9       0.143600
     49 O1A          5.9360    -4.3560    -0.5510 os         1 1L9      -0.468000
     50 C1A          5.4730    -5.6300    -0.8430 c6         1 1L9       0.356300
     51 O6A          4.0710    -5.6960    -0.8400 os         1 1L9      -0.452000
     52 C2A          6.0060    -6.0600    -2.2130 c6         1 1L9       0.116300
     53 O2A          7.4030    -5.9370    -2.3120 oh         1 1L9      -0.709000
     54 C3A          5.3790    -5.2170    -3.3170 c6         1 1L9       0.141300
     55 O3A          5.7400    -5.6800    -4.5960 oh         1 1L9      -0.672000
     56 C4A          3.8560    -5.2710    -3.2190 c6         1 1L9       0.151300
     57 O4A          3.3510    -6.5540    -3.4920 oh         1 1L9      -0.711000
     58 C5M          3.4510    -4.8700    -1.8090 c6         1 1L9       0.166300
     59 C6A          1.9580    -4.9460    -1.5880 c3         1 1L9       0.194600
     60 OAZ          1.7030    -4.2690    -0.3570 os         1 1L9      -0.463100
     61 CCI          0.4420    -3.9400    -0.0740 c          1 1L9       0.646100
     62 OCK         -0.5140    -4.2930    -0.7260 o          1 1L9      -0.527000
     63 NCJ          0.4230    -3.1590     1.0350 ns         1 1L9      -0.143000
     64 CCU         -0.6790    -2.5340     1.6190 ca         1 1L9       0.001000
     65 CCL         -0.4670    -1.9030     2.8470 ca         1 1L9      -0.145500
     66 CCQ         -1.4860    -1.2180     3.4850 ca         1 1L9      -0.077000
     67 CCR         -2.7390    -1.1630     2.8970 ca         1 1L9       0.087000
     68 CL1         -4.0230    -0.2950     3.6750 cl         1 1L9      -0.208000
     69 CCS         -2.9700    -1.7870     1.6840 ca         1 1L9      -0.077000
     70 CCT         -1.9480    -2.4700     1.0420 ca         1 1L9      -0.145500
     71 H1         -27.2460     1.9840    -1.6340 hc         1 1L9       0.031367
     72 H2         -28.1390     2.8770    -0.4070 hc         1 1L9       0.031367
     73 H3         -27.2390     3.7450    -1.6470 hc         1 1L9       0.031367
     74 H4         -25.9970     3.7500     0.5420 hc         1 1L9       0.036700
     75 H5         -26.0050     2.0010     0.5550 hc         1 1L9       0.036700
     76 H6         -24.6730     1.9780    -1.5640 hc         1 1L9       0.036700
     77 H7         -24.6650     3.7280    -1.5780 hc         1 1L9       0.036700
     78 H8         -23.4470     3.7420     0.6100 hc         1 1L9       0.036700
     79 H9         -23.4580     1.9920     0.6280 hc         1 1L9       0.036700
     80 H10        -22.1330     1.9610    -1.4970 hc         1 1L9       0.036700
     81 H11        -22.1220     3.7110    -1.5160 hc         1 1L9       0.036700
     82 H12        -20.8960     3.7290     0.6670 hc         1 1L9       0.037200
     83 H13        -20.9130     1.9790     0.6920 hc         1 1L9       0.037200
     84 H14        -19.5950     1.9340    -1.4360 hc         1 1L9       0.036700
     85 H15        -19.5770     3.6840    -1.4630 hc         1 1L9       0.036700
     86 H16        -18.3440     3.7080     0.7150 hc         1 1L9       0.037200
     87 H17        -18.3700     1.9580     0.7510 hc         1 1L9       0.037200
     88 H18        -17.0590     1.8940    -1.3810 hc         1 1L9       0.036700
     89 H19        -17.0290     3.6440    -1.4170 hc         1 1L9       0.036700
     90 H20        -15.7890     3.6710     0.7560 hc         1 1L9       0.037200
     91 H21        -15.8300     1.9220     0.8040 hc         1 1L9       0.037200
     92 H22        -14.5270     1.8320    -1.3320 hc         1 1L9       0.036700
     93 H23        -14.4800     3.5810    -1.3790 hc         1 1L9       0.036700
     94 H24        -13.2290     3.6100     0.7870 hc         1 1L9       0.037700
     95 H25        -13.2930     1.8620     0.8510 hc         1 1L9       0.037700
     96 H26        -12.0020     1.7360    -1.2910 hc         1 1L9       0.036700
     97 H27        -11.9280     3.4830    -1.3510 hc         1 1L9       0.036700
     98 H28        -10.6620     3.5110     0.8050 hc         1 1L9       0.037700
     99 H29        -10.7620     1.7650     0.8900 hc         1 1L9       0.037700
    100 H30         -9.4900     1.5850    -1.2590 hc         1 1L9       0.036700
    101 H31         -9.3740     3.3290    -1.3390 hc         1 1L9       0.036700
    102 H32         -8.0830     3.3550     0.7960 hc         1 1L9       0.037700
    103 H33         -8.2390     1.6160     0.9210 hc         1 1L9       0.037700
    104 H34         -7.0010     1.3450    -1.2350 hc         1 1L9       0.035700
    105 H35         -6.8230     3.0810    -1.3570 hc         1 1L9       0.035700
    106 H36         -5.4840     3.1190     0.7360 hc         1 1L9       0.039200
    107 H37         -5.7280     1.3990     0.9470 hc         1 1L9       0.039200
    108 H38         -4.5550     0.9510    -1.2040 hc         1 1L9       0.035700
    109 H39         -4.2750     2.6640    -1.4240 hc         1 1L9       0.035700
    110 H40         -2.8500     2.7410     0.5860 hc         1 1L9       0.040700
    111 H41         -3.2900     1.1010     1.0050 hc         1 1L9       0.040700
    112 H42         -2.2250     0.2560    -1.0750 hc         1 1L9       0.036200
    113 H43         -1.7220     1.8800    -1.4960 hc         1 1L9       0.036200
    114 H44         -0.3040     2.0050     0.5300 hc         1 1L9       0.042700
    115 H45         -0.9430     0.4740     1.0970 hc         1 1L9       0.042700
    116 H46          0.0230    -0.6900    -0.8690 hc         1 1L9       0.036700
    117 H47          0.7080     0.8130    -1.4510 hc         1 1L9       0.036700
    118 H48          2.1130     0.9810     0.6050 hc         1 1L9       0.055200
    119 H49          1.3290    -0.4310     1.2640 hc         1 1L9       0.055200
    120 H50          2.1570    -1.6630    -0.8980 hc         1 1L9       0.054700
    121 H51          3.2330    -0.3080    -1.1130 hc         1 1L9       0.054700
    122 H52          5.0570    -1.5190    -0.8140 hn         1 1L9       0.311500
    123 H53          5.7630    -2.1950     1.9500 h1         1 1L9       0.087700
    124 H54          7.2730    -1.8900    -0.6700 h1         1 1L9       0.078700
    125 H55          8.4410    -2.8370     1.7020 ho         1 1L9       0.439000
    126 H56          7.8510    -0.7030     2.0680 h1         1 1L9       0.068700
    127 H57          6.3820     0.6060     0.0670 ho         1 1L9       0.437000
    128 H58          9.6710    -0.7280     0.3450 hc         1 1L9       0.050200
    129 H59          8.6510     0.1930    -0.7370 hc         1 1L9       0.050200
    130 H60          8.5980     2.0760     0.9170 hc         1 1L9       0.044700
    131 H61          9.5830     1.1370     2.0200 hc         1 1L9       0.044700
    132 H62         11.4250     1.0790     0.3320 hc         1 1L9       0.037700
    133 H63         10.4400     2.0030    -0.7810 hc         1 1L9       0.037700
    134 H64         10.3680     3.8990     0.8500 hc         1 1L9       0.038700
    135 H65         11.3470     2.9760     1.9690 hc         1 1L9       0.038700
    136 H66         13.2010     2.8990     0.2890 hc         1 1L9       0.037200
    137 H67         12.2230     3.8190    -0.8330 hc         1 1L9       0.037200
    138 H68         12.1480     5.7230     0.7890 hc         1 1L9       0.037700
    139 H69         13.1210     4.8030     1.9150 hc         1 1L9       0.037700
    140 H70         14.9800     4.7170     0.2410 hc         1 1L9       0.037200
    141 H71         14.0070     5.6350    -0.8870 hc         1 1L9       0.037200
    142 H72         13.9290     7.5440     0.7300 hc         1 1L9       0.037700
    143 H73         14.8990     6.6270     1.8610 hc         1 1L9       0.037700
    144 H74         16.7620     6.5330     0.1910 hc         1 1L9       0.036700
    145 H75         15.7920     7.4480    -0.9430 hc         1 1L9       0.036700
    146 H76         15.7110     9.3630     0.6670 hc         1 1L9       0.037200
    147 H77         16.6800     8.4490     1.8030 hc         1 1L9       0.037200
    148 H78         18.5440     8.3490     0.1340 hc         1 1L9       0.036700
    149 H79         17.5750     9.2590    -1.0040 hc         1 1L9       0.036700
    150 H80         17.4940    11.1810     0.6010 hc         1 1L9       0.036700
    151 H81         18.4660    10.2730     1.7370 hc         1 1L9       0.036700
    152 H82         20.3250    10.1690     0.0630 hc         1 1L9       0.036200
    153 H83         19.3520    11.0720    -1.0740 hc         1 1L9       0.036200
    154 H84         20.9450    12.5900     0.0840 hc         1 1L9       0.031367
    155 H85         19.2950    13.0230     0.5190 hc         1 1L9       0.031367
    156 H86         20.2960    12.1180     1.6510 hc         1 1L9       0.031367
    157 H87          6.4570    -4.4680     1.4510 h1         1 1L9       0.050200
    158 H88          4.7400    -4.2180     1.1420 h1         1 1L9       0.050200
    159 H89          5.7920    -6.3480    -0.0740 h2         1 1L9       0.071700
    160 H90          5.6940    -7.1020    -2.3580 h1         1 1L9       0.065700
    161 H91          7.8140    -6.6900    -1.8770 ho         1 1L9       0.513000
    162 H92          5.6860    -4.1700    -3.1810 h1         1 1L9       0.060700
    163 H93          6.6960    -5.7960    -4.6180 ho         1 1L9       0.470000
    164 H94          3.4380    -4.5240    -3.9120 h1         1 1L9       0.050700
    165 H95          3.7180    -6.8450    -4.3340 ho         1 1L9       0.524000
    166 H96          3.7570    -3.8240    -1.6780 h1         1 1L9       0.053700
    167 H97          1.4410    -4.4470    -2.4110 h1         1 1L9       0.071700
    168 H98          1.6100    -5.9790    -1.5330 h1         1 1L9       0.071700
    169 H99          1.3250    -2.9380     1.4450 hn         1 1L9       0.193000
    170 H100         0.5130    -1.9360     3.3070 ha         1 1L9       0.140500
    171 H101        -1.2940    -0.7330     4.4320 ha         1 1L9       0.129500
    172 H102        -3.9470    -1.7430     1.2220 ha         1 1L9       0.129500
    173 H103        -2.1560    -2.9340     0.0930 ha         1 1L9       0.140500
@<TRIPOS>BOND
     1     1     2 1   
     2     1    71 1   
     3     1    72 1   
     4     1    73 1   
     5     2     3 1   
     6     2    74 1   
     7     2    75 1   
     8     3     4 1   
     9     3    76 1   
    10     3    77 1   
    11     4     5 1   
    12     4    78 1   
    13     4    79 1   
    14     5     6 1   
    15     5    80 1   
    16     5    81 1   
    17     6     7 1   
    18     6    82 1   
    19     6    83 1   
    20     7     8 1   
    21     7    84 1   
    22     7    85 1   
    23     8     9 1   
    24     8    86 1   
    25     8    87 1   
    26     9    10 1   
    27     9    88 1   
    28     9    89 1   
    29    10    11 1   
    30    10    90 1   
    31    10    91 1   
    32    11    12 1   
    33    11    92 1   
    34    11    93 1   
    35    12    13 1   
    36    12    94 1   
    37    12    95 1   
    38    13    14 1   
    39    13    96 1   
    40    13    97 1   
    41    14    15 1   
    42    14    98 1   
    43    14    99 1   
    44    15    16 1   
    45    15   100 1   
    46    15   101 1   
    47    16    17 1   
    48    16   102 1   
    49    16   103 1   
    50    17    18 1   
    51    17   104 1   
    52    17   105 1   
    53    18    19 1   
    54    18   106 1   
    55    18   107 1   
    56    19    20 1   
    57    19   108 1   
    58    19   109 1   
    59    20    21 1   
    60    20   110 1   
    61    20   111 1   
    62    21    22 1   
    63    21   112 1   
    64    21   113 1   
    65    22    23 1   
    66    22   114 1   
    67    22   115 1   
    68    23    24 1   
    69    23   116 1   
    70    23   117 1   
    71    24    25 1   
    72    24   118 1   
    73    24   119 1   
    74    25    26 1   
    75    25   120 1   
    76    25   121 1   
    77    26    27 2   
    78    26    28 1   
    79    28    29 1   
    80    28   122 1   
    81    29    30 1   
    82    29    48 1   
    83    29   123 1   
    84    30    31 1   
    85    30    32 1   
    86    30   124 1   
    87    31   125 1   
    88    32    33 1   
    89    32    34 1   
    90    32   126 1   
    91    33   127 1   
    92    34    35 1   
    93    34   128 1   
    94    34   129 1   
    95    35    36 1   
    96    35   130 1   
    97    35   131 1   
    98    36    37 1   
    99    36   132 1   
   100    36   133 1   
   101    37    38 1   
   102    37   134 1   
   103    37   135 1   
   104    38    39 1   
   105    38   136 1   
   106    38   137 1   
   107    39    40 1   
   108    39   138 1   
   109    39   139 1   
   110    40    41 1   
   111    40   140 1   
   112    40   141 1   
   113    41    42 1   
   114    41   142 1   
   115    41   143 1   
   116    42    43 1   
   117    42   144 1   
   118    42   145 1   
   119    43    44 1   
   120    43   146 1   
   121    43   147 1   
   122    44    45 1   
   123    44   148 1   
   124    44   149 1   
   125    45    46 1   
   126    45   150 1   
   127    45   151 1   
   128    46    47 1   
   129    46   152 1   
   130    46   153 1   
   131    47   154 1   
   132    47   155 1   
   133    47   156 1   
   134    48    49 1   
   135    48   157 1   
   136    48   158 1   
   137    49    50 1   
   138    50    51 1   
   139    50    52 1   
   140    50   159 1   
   141    51    58 1   
   142    52    53 1   
   143    52    54 1   
   144    52   160 1   
   145    53   161 1   
   146    54    55 1   
   147    54    56 1   
   148    54   162 1   
   149    55   163 1   
   150    56    57 1   
   151    56    58 1   
   152    56   164 1   
   153    57   165 1   
   154    58    59 1   
   155    58   166 1   
   156    59    60 1   
   157    59   167 1   
   158    59   168 1   
   159    60    61 1   
   160    61    62 2   
   161    61    63 1   
   162    63    64 1   
   163    63   169 1   
   164    64    65 ar  
   165    64    70 ar  
   166    65    66 ar  
   167    65   170 1   
   168    66    67 ar  
   169    66   171 1   
   170    67    68 1   
   171    67    69 ar  
   172    69    70 ar  
   173    69   172 1   
   174    70   173 1   
@<TRIPOS>SUBSTRUCTURE
     1 1L9         1 TEMP              0 ****  ****    0 ROOT
