@<TRIPOS>MOLECULE
1LA
  172   173     1     0     0
SMALL
No Charge or Current Charge


@<TRIPOS>ATOM
      1 CAZ         24.9480    -8.9260    -0.7660 c3         1 1LA      -0.088100
      2 CAY         23.6800    -8.6390     0.0610 c3         1 1LA      -0.074400
      3 CAX         22.6200    -7.8300    -0.7170 c3         1 1LA      -0.075400
      4 CAW         21.3490    -7.5420     0.1120 c3         1 1LA      -0.074400
      5 CAV         20.2890    -6.7320    -0.6670 c3         1 1LA      -0.074400
      6 CAU         19.0190    -6.4450     0.1630 c3         1 1LA      -0.074400
      7 CAT         17.9590    -5.6360    -0.6160 c3         1 1LA      -0.074400
      8 CAS         16.6880    -5.3480     0.2130 c3         1 1LA      -0.074400
      9 CAR         15.6280    -4.5390    -0.5660 c3         1 1LA      -0.074400
     10 CAQ         14.3570    -4.2520     0.2640 c3         1 1LA      -0.074400
     11 CAP         13.2970    -3.4430    -0.5150 c3         1 1LA      -0.074400
     12 CAO         12.0260    -3.1570     0.3140 c3         1 1LA      -0.074400
     13 CAN         10.9660    -2.3480    -0.4650 c3         1 1LA      -0.074400
     14 CAM          9.6950    -2.0620     0.3650 c3         1 1LA      -0.074400
     15 CAL          8.6340    -1.2530    -0.4140 c3         1 1LA      -0.073400
     16 CAK          7.3630    -0.9680     0.4150 c3         1 1LA      -0.074400
     17 CAJ          6.3020    -0.1600    -0.3640 c3         1 1LA      -0.073400
     18 CAI          5.0310     0.1260     0.4650 c3         1 1LA      -0.074400
     19 CAH          3.9690     0.9330    -0.3140 c3         1 1LA      -0.073400
     20 CAG          2.6980     1.2180     0.5150 c3         1 1LA      -0.074400
     21 CAF          1.6360     2.0250    -0.2640 c3         1 1LA      -0.073400
     22 CAE          0.3650     2.3090     0.5660 c3         1 1LA      -0.075400
     23 CAD         -0.6950     3.1180    -0.2130 c3         1 1LA      -0.076400
     24 CAC         -1.9620     3.4080     0.6190 c3         1 1LA      -0.066400
     25 CAB         -3.0130     4.2390    -0.1520 c3         1 1LA      -0.158400
     26 CAA         -4.2190     4.5850     0.7270 c          1 1LA       0.613100
     27 OAA         -4.1380     5.3570     1.6720 o          1 1LA      -0.651100
     28 N2          -5.3990     3.9860     0.3600 ns         1 1LA      -0.487900
     29 C2          -6.6890     4.1530     1.0430 c3         1 1LA       0.093700
     30 C3          -7.7280     3.0380     0.6690 c3         1 1LA       0.125300
     31 O3          -8.8530     3.1490     1.5690 oh         1 1LA      -0.640000
     32 C4          -7.1690     1.5650     0.6750 c3         1 1LA       0.133300
     33 O4          -6.1710     1.4050    -0.3490 oh         1 1LA      -0.667000
     34 C5          -8.2650     0.4850     0.4410 c3         1 1LA      -0.107400
     35 C6          -7.7580    -0.9770     0.5270 c3         1 1LA      -0.074400
     36 C7          -8.8930    -2.0140     0.3790 c3         1 1LA      -0.075400
     37 C8          -8.3940    -3.4730     0.4630 c3         1 1LA      -0.074400
     38 C9          -9.5300    -4.5100     0.3150 c3         1 1LA      -0.074400
     39 C10         -9.0310    -5.9690     0.3990 c3         1 1LA      -0.074400
     40 C11        -10.1660    -7.0050     0.2510 c3         1 1LA      -0.074400
     41 C12         -9.6680    -8.4650     0.3350 c3         1 1LA      -0.074400
     42 C13        -10.8030    -9.5010     0.1860 c3         1 1LA      -0.074400
     43 C14        -10.3050   -10.9600     0.2700 c3         1 1LA      -0.074400
     44 C15        -11.4410   -11.9960     0.1220 c3         1 1LA      -0.074400
     45 C16        -10.9420   -13.4560     0.2060 c3         1 1LA      -0.075400
     46 C17        -12.0780   -14.4920     0.0570 c3         1 1LA      -0.075400
     47 C18        -11.5810   -15.9480     0.1400 c3         1 1LA      -0.088100
     48 C1          -7.2540     5.5870     0.8270 c3         1 1LA       0.144600
     49 O1A         -7.6020     5.7580    -0.5640 os         1 1LA      -0.473000
     50 C1A         -7.8790     7.1090    -0.9820 c6         1 1LA       0.359300
     51 O6A         -6.6590     7.8790    -0.9500 os         1 1LA      -0.451000
     52 C2A         -8.5170     7.1360    -2.4140 c6         1 1LA       0.115300
     53 O2A         -9.6700     6.2630    -2.5040 oh         1 1LA      -0.712000
     54 C3A         -7.4660     6.7390    -3.4990 c6         1 1LA       0.138300
     55 O3A         -8.0320     6.9070    -4.8130 oh         1 1LA      -0.670000
     56 C4A         -6.1570     7.5730    -3.3580 c6         1 1LA       0.152300
     57 O4A         -6.4140     8.9440    -3.7240 oh         1 1LA      -0.710000
     58 C5M         -5.6460     7.4310    -1.8920 c6         1 1LA       0.164300
     59 C6A         -4.3400     8.2290    -1.6230 c3         1 1LA       0.198600
     60 OAZ         -3.7630     7.7400    -0.3960 os         1 1LA      -0.463100
     61 CCI         -2.5530     8.2270    -0.0010 c          1 1LA       0.650100
     62 OCK         -1.9070     9.0700    -0.6080 o          1 1LA      -0.524000
     63 NCJ         -2.1630     7.5470     1.1320 ns         1 1LA      -0.148000
     64 CCU         -0.9770     7.5880     1.9060 ca         1 1LA       0.039000
     65 CCL         -0.8490     6.7050     2.9890 ca         1 1LA      -0.214000
     66 CCQ          0.3200     6.7200     3.7650 ca         1 1LA       0.352400
     67 N            1.3510     7.5590     3.5200 nb         1 1LA      -0.689000
     68 CCS          1.2330     8.4130     2.4790 ca         1 1LA       0.352400
     69 CCT          0.0980     8.4610     1.6530 ca         1 1LA      -0.214000
     70 H1          24.7020    -9.5060    -1.6640 hc         1 1LA       0.031367
     71 H2          25.4280    -7.9910    -1.0770 hc         1 1LA       0.031367
     72 H3          25.6690    -9.5010    -0.1730 hc         1 1LA       0.031367
     73 H4          23.2430    -9.5920     0.3870 hc         1 1LA       0.036700
     74 H5          23.9630    -8.0900     0.9680 hc         1 1LA       0.036700
     75 H6          23.0610    -6.8790    -1.0430 hc         1 1LA       0.036700
     76 H7          22.3410    -8.3810    -1.6240 hc         1 1LA       0.036700
     77 H8          20.9090    -8.4930     0.4370 hc         1 1LA       0.036700
     78 H9          21.6280    -6.9910     1.0190 hc         1 1LA       0.036700
     79 H10         20.7300    -5.7820    -0.9920 hc         1 1LA       0.036700
     80 H11         20.0100    -7.2830    -1.5740 hc         1 1LA       0.036700
     81 H12         18.5780    -7.3960     0.4880 hc         1 1LA       0.036700
     82 H13         19.2980    -5.8940     1.0700 hc         1 1LA       0.036700
     83 H14         18.3990    -4.6850    -0.9410 hc         1 1LA       0.036700
     84 H15         17.6800    -6.1860    -1.5230 hc         1 1LA       0.036700
     85 H16         16.2480    -6.2990     0.5390 hc         1 1LA       0.037200
     86 H17         16.9670    -4.7970     1.1200 hc         1 1LA       0.037200
     87 H18         16.0680    -3.5880    -0.8910 hc         1 1LA       0.036700
     88 H19         15.3490    -5.0900    -1.4730 hc         1 1LA       0.036700
     89 H20         13.9170    -5.2030     0.5890 hc         1 1LA       0.037200
     90 H21         14.6360    -3.7010     1.1710 hc         1 1LA       0.037200
     91 H22         13.7370    -2.4920    -0.8400 hc         1 1LA       0.036700
     92 H23         13.0180    -3.9940    -1.4220 hc         1 1LA       0.036700
     93 H24         11.5860    -4.1080     0.6390 hc         1 1LA       0.037200
     94 H25         12.3050    -2.6060     1.2210 hc         1 1LA       0.037200
     95 H26         11.4050    -1.3970    -0.7900 hc         1 1LA       0.037200
     96 H27         10.6870    -2.8990    -1.3720 hc         1 1LA       0.037200
     97 H28          9.2550    -3.0130     0.6900 hc         1 1LA       0.037200
     98 H29          9.9730    -1.5110     1.2720 hc         1 1LA       0.037200
     99 H30          9.0730    -0.3020    -0.7390 hc         1 1LA       0.037200
    100 H31          8.3560    -1.8040    -1.3210 hc         1 1LA       0.037200
    101 H32          6.9240    -1.9190     0.7400 hc         1 1LA       0.037200
    102 H33          7.6410    -0.4160     1.3220 hc         1 1LA       0.037200
    103 H34          6.7410     0.7920    -0.6890 hc         1 1LA       0.036700
    104 H35          6.0240    -0.7110    -1.2710 hc         1 1LA       0.036700
    105 H36          4.5920    -0.8260     0.7910 hc         1 1LA       0.037700
    106 H37          5.3080     0.6770     1.3720 hc         1 1LA       0.037700
    107 H38          4.4080     1.8850    -0.6390 hc         1 1LA       0.036700
    108 H39          3.6920     0.3820    -1.2210 hc         1 1LA       0.036700
    109 H40          2.2590     0.2660     0.8410 hc         1 1LA       0.039700
    110 H41          2.9750     1.7690     1.4220 hc         1 1LA       0.039700
    111 H42          2.0750     2.9770    -0.5890 hc         1 1LA       0.036200
    112 H43          1.3590     1.4730    -1.1710 hc         1 1LA       0.036200
    113 H44         -0.0740     1.3580     0.8900 hc         1 1LA       0.042200
    114 H45          0.6440     2.8600     1.4730 hc         1 1LA       0.042200
    115 H46         -0.2540     4.0690    -0.5390 hc         1 1LA       0.036700
    116 H47         -0.9760     2.5680    -1.1190 hc         1 1LA       0.036700
    117 H48         -2.4140     2.4600     0.9390 hc         1 1LA       0.052700
    118 H49         -1.6740     3.9470     1.5310 hc         1 1LA       0.052700
    119 H50         -2.5440     5.1720    -0.4800 hc         1 1LA       0.059700
    120 H51         -3.3390     3.6740    -1.0340 hc         1 1LA       0.059700
    121 H52         -5.3520     3.2900    -0.3790 hn         1 1LA       0.335500
    122 H53         -6.4810     4.0510     2.1160 h1         1 1LA       0.065700
    123 H54         -8.0660     3.2350    -0.3580 h1         1 1LA       0.094700
    124 H55         -8.5620     2.8400     2.4540 ho         1 1LA       0.441000
    125 H56         -6.7190     1.3830     1.6620 h1         1 1LA       0.074700
    126 H57         -5.9170     0.4570    -0.3590 ho         1 1LA       0.447000
    127 H58         -9.0590     0.6070     1.1870 hc         1 1LA       0.052700
    128 H59         -8.7310     0.6510    -0.5390 hc         1 1LA       0.052700
    129 H60         -7.0130    -1.1610    -0.2560 hc         1 1LA       0.044700
    130 H61         -7.2570    -1.1290     1.4920 hc         1 1LA       0.044700
    131 H62         -9.6420    -1.8450     1.1630 hc         1 1LA       0.038200
    132 H63         -9.3980    -1.8610    -0.5840 hc         1 1LA       0.038200
    133 H64         -7.6460    -3.6440    -0.3220 hc         1 1LA       0.038700
    134 H65         -7.8900    -3.6270     1.4250 hc         1 1LA       0.038700
    135 H66        -10.2780    -4.3390     1.1000 hc         1 1LA       0.037700
    136 H67        -10.0340    -4.3570    -0.6470 hc         1 1LA       0.037700
    137 H68         -8.2830    -6.1400    -0.3850 hc         1 1LA       0.037700
    138 H69         -8.5270    -6.1220     1.3620 hc         1 1LA       0.037700
    139 H70        -10.9140    -6.8350     1.0350 hc         1 1LA       0.037700
    140 H71        -10.6700    -6.8520    -0.7120 hc         1 1LA       0.037700
    141 H72         -8.9200    -8.6350    -0.4490 hc         1 1LA       0.037700
    142 H73         -9.1640    -8.6180     1.2980 hc         1 1LA       0.037700
    143 H74        -11.5510    -9.3300     0.9710 hc         1 1LA       0.036700
    144 H75        -11.3070    -9.3470    -0.7760 hc         1 1LA       0.036700
    145 H76         -9.5570   -11.1310    -0.5140 hc         1 1LA       0.037200
    146 H77         -9.8010   -11.1140     1.2330 hc         1 1LA       0.037200
    147 H78        -12.1890   -11.8250     0.9060 hc         1 1LA       0.036700
    148 H79        -11.9440   -11.8420    -0.8410 hc         1 1LA       0.036700
    149 H80        -10.1940   -13.6260    -0.5790 hc         1 1LA       0.036700
    150 H81        -10.4380   -13.6090     1.1680 hc         1 1LA       0.036700
    151 H82        -12.8270   -14.3250     0.8410 hc         1 1LA       0.036700
    152 H83        -12.5830   -14.3420    -0.9060 hc         1 1LA       0.036700
    153 H84        -12.4200   -16.6450     0.0290 hc         1 1LA       0.031367
    154 H85        -10.8540   -16.1560    -0.6550 hc         1 1LA       0.031367
    155 H86        -11.1010   -16.1390     1.1080 hc         1 1LA       0.031367
    156 H87         -8.1350     5.7380     1.4640 h1         1 1LA       0.056200
    157 H88         -6.4970     6.3200     1.1340 h1         1 1LA       0.056200
    158 H89         -8.6000     7.5560    -0.2800 h2         1 1LA       0.071700
    159 H90         -8.8290     8.1730    -2.6050 h1         1 1LA       0.066700
    160 H91         -9.4720     5.4920    -1.9200 ho         1 1LA       0.513000
    161 H92         -7.2030     5.6810    -3.3430 h1         1 1LA       0.060700
    162 H93         -8.9520     6.5610    -4.7430 ho         1 1LA       0.468000
    163 H94         -5.4010     7.1410    -4.0320 h1         1 1LA       0.051700
    164 H95         -7.0250     8.8800    -4.4980 ho         1 1LA       0.523000
    165 H96         -5.4220     6.3710    -1.7010 h1         1 1LA       0.059700
    166 H97         -3.6510     8.0690    -2.4620 h1         1 1LA       0.069700
    167 H98         -4.5690     9.3010    -1.5610 h1         1 1LA       0.069700
    168 H99         -2.8500     6.8730     1.4520 hn         1 1LA       0.207000
    169 H100        -1.6450     6.0060     3.2350 ha         1 1LA       0.143500
    170 H101         0.4360     6.0400     4.6080 h4         1 1LA       0.015100
    171 H102         2.0760     9.0800     2.3010 h4         1 1LA       0.015100
    172 H103         0.0810     9.1750     0.8380 ha         1 1LA       0.143500
@<TRIPOS>BOND
     1     1     2 1   
     2     1    70 1   
     3     1    71 1   
     4     1    72 1   
     5     2     3 1   
     6     2    73 1   
     7     2    74 1   
     8     3     4 1   
     9     3    75 1   
    10     3    76 1   
    11     4     5 1   
    12     4    77 1   
    13     4    78 1   
    14     5     6 1   
    15     5    79 1   
    16     5    80 1   
    17     6     7 1   
    18     6    81 1   
    19     6    82 1   
    20     7     8 1   
    21     7    83 1   
    22     7    84 1   
    23     8     9 1   
    24     8    85 1   
    25     8    86 1   
    26     9    10 1   
    27     9    87 1   
    28     9    88 1   
    29    10    11 1   
    30    10    89 1   
    31    10    90 1   
    32    11    12 1   
    33    11    91 1   
    34    11    92 1   
    35    12    13 1   
    36    12    93 1   
    37    12    94 1   
    38    13    14 1   
    39    13    95 1   
    40    13    96 1   
    41    14    15 1   
    42    14    97 1   
    43    14    98 1   
    44    15    16 1   
    45    15    99 1   
    46    15   100 1   
    47    16    17 1   
    48    16   101 1   
    49    16   102 1   
    50    17    18 1   
    51    17   103 1   
    52    17   104 1   
    53    18    19 1   
    54    18   105 1   
    55    18   106 1   
    56    19    20 1   
    57    19   107 1   
    58    19   108 1   
    59    20    21 1   
    60    20   109 1   
    61    20   110 1   
    62    21    22 1   
    63    21   111 1   
    64    21   112 1   
    65    22    23 1   
    66    22   113 1   
    67    22   114 1   
    68    23    24 1   
    69    23   115 1   
    70    23   116 1   
    71    24    25 1   
    72    24   117 1   
    73    24   118 1   
    74    25    26 1   
    75    25   119 1   
    76    25   120 1   
    77    26    27 2   
    78    26    28 1   
    79    28    29 1   
    80    28   121 1   
    81    29    30 1   
    82    29    48 1   
    83    29   122 1   
    84    30    31 1   
    85    30    32 1   
    86    30   123 1   
    87    31   124 1   
    88    32    33 1   
    89    32    34 1   
    90    32   125 1   
    91    33   126 1   
    92    34    35 1   
    93    34   127 1   
    94    34   128 1   
    95    35    36 1   
    96    35   129 1   
    97    35   130 1   
    98    36    37 1   
    99    36   131 1   
   100    36   132 1   
   101    37    38 1   
   102    37   133 1   
   103    37   134 1   
   104    38    39 1   
   105    38   135 1   
   106    38   136 1   
   107    39    40 1   
   108    39   137 1   
   109    39   138 1   
   110    40    41 1   
   111    40   139 1   
   112    40   140 1   
   113    41    42 1   
   114    41   141 1   
   115    41   142 1   
   116    42    43 1   
   117    42   143 1   
   118    42   144 1   
   119    43    44 1   
   120    43   145 1   
   121    43   146 1   
   122    44    45 1   
   123    44   147 1   
   124    44   148 1   
   125    45    46 1   
   126    45   149 1   
   127    45   150 1   
   128    46    47 1   
   129    46   151 1   
   130    46   152 1   
   131    47   153 1   
   132    47   154 1   
   133    47   155 1   
   134    48    49 1   
   135    48   156 1   
   136    48   157 1   
   137    49    50 1   
   138    50    51 1   
   139    50    52 1   
   140    50   158 1   
   141    51    58 1   
   142    52    53 1   
   143    52    54 1   
   144    52   159 1   
   145    53   160 1   
   146    54    55 1   
   147    54    56 1   
   148    54   161 1   
   149    55   162 1   
   150    56    57 1   
   151    56    58 1   
   152    56   163 1   
   153    57   164 1   
   154    58    59 1   
   155    58   165 1   
   156    59    60 1   
   157    59   166 1   
   158    59   167 1   
   159    60    61 1   
   160    61    62 2   
   161    61    63 1   
   162    63    64 1   
   163    63   168 1   
   164    64    65 ar  
   165    64    69 ar  
   166    65    66 ar  
   167    65   169 1   
   168    66    67 ar  
   169    66   170 1   
   170    67    68 ar  
   171    68    69 ar  
   172    68   171 1   
   173    69   172 1   
@<TRIPOS>SUBSTRUCTURE
     1 1LA         1 TEMP              0 ****  ****    0 ROOT
