@<TRIPOS>MOLECULE
1LA
  172   173     1     0     0
SMALL
bcc


@<TRIPOS>ATOM
      1 CAZ         25.2590    -8.4090    -0.5640 c3         1 1LA      -0.088100
      2 CAY         24.2340    -7.5860     0.2030 c3         1 1LA      -0.074400
      3 CAX         22.9610    -7.3350    -0.5970 c3         1 1LA      -0.075400
      4 CAW         21.9250    -6.5110     0.1570 c3         1 1LA      -0.074400
      5 CAV         20.6550    -6.2610    -0.6450 c3         1 1LA      -0.074400
      6 CAU         19.6180    -5.4380     0.1090 c3         1 1LA      -0.074400
      7 CAT         18.3450    -5.1910    -0.6910 c3         1 1LA      -0.074400
      8 CAS         17.3090    -4.3700     0.0670 c3         1 1LA      -0.074400
      9 CAR         16.0330    -4.1260    -0.7280 c3         1 1LA      -0.074400
     10 CAQ         14.9990    -3.3070     0.0350 c3         1 1LA      -0.074400
     11 CAP         13.7160    -3.0670    -0.7530 c3         1 1LA      -0.074400
     12 CAO         12.6840    -2.2530     0.0160 c3         1 1LA      -0.074400
     13 CAN         11.3950    -2.0180    -0.7610 c3         1 1LA      -0.074400
     14 CAM         10.3640    -1.2120     0.0190 c3         1 1LA      -0.074400
     15 CAL          9.0650    -0.9880    -0.7440 c3         1 1LA      -0.073400
     16 CAK          8.0330    -0.2010     0.0530 c3         1 1LA      -0.074400
     17 CAJ          6.7190     0.0080    -0.6890 c3         1 1LA      -0.073400
     18 CAI          5.6770     0.7470     0.1410 c3         1 1LA      -0.074400
     19 CAH          4.3470     0.9390    -0.5780 c3         1 1LA      -0.073400
     20 CAG          3.2800     1.5770     0.3030 c3         1 1LA      -0.074400
     21 CAF          1.9440     1.7640    -0.4050 c3         1 1LA      -0.073400
     22 CAE          0.8410     2.2760     0.5150 c3         1 1LA      -0.075400
     23 CAD         -0.4840     2.4840    -0.2070 c3         1 1LA      -0.076400
     24 CAC         -1.6070     2.9330     0.7200 c3         1 1LA      -0.066400
     25 CAB         -2.8890     3.2080    -0.0510 c3         1 1LA      -0.158400
     26 CAA         -4.0620     3.6310     0.8050 c          1 1LA       0.680100
     27 OAA         -3.9250     4.2830     1.8430 o          1 1LA      -0.651100
     28 N2          -5.2570     3.2700     0.3290 ns         1 1LA      -0.554900
     29 C2          -6.5260     3.5880     0.9540 c3         1 1LA       0.093700
     30 C3          -7.6450     2.6480     0.4550 c3         1 1LA       0.102100
     31 O3          -8.8210     2.9360     1.1730 oh         1 1LA      -0.577800
     32 C4          -7.2750     1.1490     0.5090 c3         1 1LA       0.110100
     33 O4          -6.3140     0.8490    -0.4950 oh         1 1LA      -0.604800
     34 C5          -8.4950     0.2430     0.3700 c3         1 1LA      -0.107400
     35 C6          -8.1670    -1.2420     0.4840 c3         1 1LA      -0.074400
     36 C7          -9.3890    -2.1220     0.2490 c3         1 1LA      -0.075400
     37 C8          -9.1150    -3.6040     0.4680 c3         1 1LA      -0.074400
     38 C9         -10.3210    -4.4870     0.1720 c3         1 1LA      -0.074400
     39 C10        -10.0710    -5.9630     0.4500 c3         1 1LA      -0.074400
     40 C11        -11.2680    -6.8480     0.1250 c3         1 1LA      -0.074400
     41 C12        -11.0280    -8.3220     0.4290 c3         1 1LA      -0.074400
     42 C13        -12.2200    -9.2090     0.0910 c3         1 1LA      -0.074400
     43 C14        -11.9840   -10.6800     0.4060 c3         1 1LA      -0.074400
     44 C15        -13.1730   -11.5690     0.0630 c3         1 1LA      -0.074400
     45 C16        -12.9370   -13.0390     0.3820 c3         1 1LA      -0.075400
     46 C17        -14.1240   -13.9310     0.0390 c3         1 1LA      -0.075400
     47 C18        -13.8740   -15.3980     0.3620 c3         1 1LA      -0.088100
     48 C1          -6.8870     5.0520     0.7350 c3         1 1LA       0.121400
     49 O1A         -7.0870     5.2680    -0.6470 os         1 1LA      -0.426600
     50 C1A         -7.1250     6.6040    -1.0160 c6         1 1LA       0.312900
     51 O6A         -5.8700     7.2180    -0.8980 os         1 1LA      -0.404600
     52 C2A         -7.6250     6.7140    -2.4610 c6         1 1LA       0.092100
     53 O2A         -8.8340     6.0260    -2.6640 oh         1 1LA      -0.589800
     54 C3A         -6.5900     6.1560    -3.4310 c6         1 1LA       0.115100
     55 O3A         -6.9600     6.3730    -4.7710 oh         1 1LA      -0.607800
     56 C4A         -5.2390     6.8360    -3.2050 c6         1 1LA       0.129100
     57 O4A         -5.2710     8.2070    -3.5120 oh         1 1LA      -0.587800
     58 C5M         -4.8730     6.6680    -1.7410 c6         1 1LA       0.141100
     59 C6A         -3.5620     7.3200    -1.3640 c3         1 1LA       0.175400
     60 OAZ         -3.2400     6.7860    -0.0820 os         1 1LA      -0.439900
     61 CCI         -2.1210     7.1730     0.5220 c          1 1LA       0.766100
     62 OCK         -1.3740     8.0270     0.1040 o          1 1LA      -0.573000
     63 NCJ         -1.9770     6.4470     1.6660 ns         1 1LA      -0.474100
     64 CCU         -0.9400     6.4990     2.5780 ca         1 1LA       0.131600
     65 CCL         -0.9470     5.5550     3.6100 ca         1 1LA      -0.297300
     66 CCQ          0.0700     5.5690     4.5430 ca         1 1LA       0.417700
     67 N            1.0780     6.4360     4.5330 nb         1 1LA      -0.689000
     68 CCS          1.0750     7.3300     3.5510 ca         1 1LA       0.417700
     69 CCT          0.1120     7.4160     2.5590 ca         1 1LA      -0.297300
     70 H1          24.8570    -9.3890    -0.8300 hc         1 1LA       0.031367
     71 H2          25.5470    -7.9110    -1.4920 hc         1 1LA       0.031367
     72 H3          26.1660    -8.5700     0.0190 hc         1 1LA       0.031367
     73 H4          23.9780    -8.0950     1.1370 hc         1 1LA       0.036700
     74 H5          24.6740    -6.6270     0.4920 hc         1 1LA       0.036700
     75 H6          23.2170    -6.8260    -1.5340 hc         1 1LA       0.036700
     76 H7          22.5200    -8.2960    -0.8870 hc         1 1LA       0.036700
     77 H8          21.6690    -7.0200     1.0930 hc         1 1LA       0.036700
     78 H9          22.3670    -5.5510     0.4470 hc         1 1LA       0.036700
     79 H10         20.9110    -5.7510    -1.5810 hc         1 1LA       0.036700
     80 H11         20.2140    -7.2210    -0.9360 hc         1 1LA       0.036700
     81 H12         19.3640    -5.9470     1.0460 hc         1 1LA       0.036700
     82 H13         20.0580    -4.4770     0.3980 hc         1 1LA       0.036700
     83 H14         18.5980    -4.6810    -1.6270 hc         1 1LA       0.036700
     84 H15         17.9060    -6.1520    -0.9800 hc         1 1LA       0.036700
     85 H16         17.0600    -4.8780     1.0050 hc         1 1LA       0.037200
     86 H17         17.7480    -3.4080     0.3540 hc         1 1LA       0.037200
     87 H18         16.2810    -3.6160    -1.6650 hc         1 1LA       0.036700
     88 H19         15.5940    -5.0880    -1.0150 hc         1 1LA       0.036700
     89 H20         14.7550    -3.8160     0.9740 hc         1 1LA       0.037200
     90 H21         15.4360    -2.3440     0.3190 hc         1 1LA       0.037200
     91 H22         13.9570    -2.5560    -1.6920 hc         1 1LA       0.036700
     92 H23         13.2800    -4.0310    -1.0380 hc         1 1LA       0.036700
     93 H24         12.4500    -2.7620     0.9580 hc         1 1LA       0.037200
     94 H25         13.1200    -1.2870     0.2970 hc         1 1LA       0.037200
     95 H26         11.6260    -1.5040    -1.7010 hc         1 1LA       0.037200
     96 H27         10.9610    -2.9840    -1.0440 hc         1 1LA       0.037200
     97 H28         10.1430    -1.7240     0.9620 hc         1 1LA       0.037200
     98 H29         10.7950    -0.2440     0.2970 hc         1 1LA       0.037200
     99 H30          9.2800    -0.4650    -1.6830 hc         1 1LA       0.037200
    100 H31          8.6400    -1.9570    -1.0290 hc         1 1LA       0.037200
    101 H32          7.8320    -0.7220     0.9960 hc         1 1LA       0.037200
    102 H33          8.4530     0.7720     0.3320 hc         1 1LA       0.037200
    103 H34          6.9080     0.5570    -1.6190 hc         1 1LA       0.036700
    104 H35          6.3150    -0.9650    -0.9910 hc         1 1LA       0.036700
    105 H36          5.5040     0.1950     1.0710 hc         1 1LA       0.037700
    106 H37          6.0740     1.7230     0.4420 hc         1 1LA       0.037700
    107 H38          4.4990     1.5480    -1.4750 hc         1 1LA       0.036700
    108 H39          3.9850    -0.0330    -0.9310 hc         1 1LA       0.036700
    109 H40          3.1330     0.9520     1.1910 hc         1 1LA       0.039700
    110 H41          3.6370     2.5450     0.6700 hc         1 1LA       0.039700
    111 H42          2.0680     2.4550    -1.2460 hc         1 1LA       0.036200
    112 H43          1.6290     0.8090    -0.8410 hc         1 1LA       0.036200
    113 H44          0.7020     1.5660     1.3370 hc         1 1LA       0.042200
    114 H45          1.1560     3.2180     0.9760 hc         1 1LA       0.042200
    115 H46         -0.3510     3.2280    -1.0000 hc         1 1LA       0.036700
    116 H47         -0.7760     1.5550    -0.7080 hc         1 1LA       0.036700
    117 H48         -1.7820     2.1660     1.4800 hc         1 1LA       0.052700
    118 H49         -1.2890     3.8300     1.2540 hc         1 1LA       0.052700
    119 H50         -2.7160     4.0100    -0.7770 hc         1 1LA       0.059700
    120 H51         -3.1600     2.3290    -0.6430 hc         1 1LA       0.059700
    121 H52         -5.2790     2.6330    -0.4530 hn         1 1LA       0.335500
    122 H53         -6.4250     3.4400     2.0360 h1         1 1LA       0.065700
    123 H54         -7.8760     2.8870    -0.5880 h1         1 1LA       0.094700
    124 H55         -8.6810     2.7180     2.1020 ho         1 1LA       0.402000
    125 H56         -6.7820     0.9340     1.4650 h1         1 1LA       0.074700
    126 H57         -6.7710     0.8040    -1.3430 ho         1 1LA       0.408000
    127 H58         -9.2320     0.4940     1.1350 hc         1 1LA       0.052700
    128 H59         -8.9790     0.4480    -0.5940 hc         1 1LA       0.052700
    129 H60         -7.3850    -1.5190    -0.2280 hc         1 1LA       0.044700
    130 H61         -7.7600    -1.4430     1.4810 hc         1 1LA       0.044700
    131 H62        -10.2020    -1.8050     0.9120 hc         1 1LA       0.038200
    132 H63         -9.7540    -1.9650    -0.7710 hc         1 1LA       0.038200
    133 H64         -8.2730    -3.9170    -0.1610 hc         1 1LA       0.038700
    134 H65         -8.7930    -3.7620     1.5030 hc         1 1LA       0.038700
    135 H66        -11.1750    -4.1460     0.7680 hc         1 1LA       0.037700
    136 H67        -10.6140    -4.3580    -0.8760 hc         1 1LA       0.037700
    137 H68         -9.2030    -6.3010    -0.1280 hc         1 1LA       0.037700
    138 H69         -9.7990    -6.0910     1.5030 hc         1 1LA       0.037700
    139 H70        -12.1400    -6.4990     0.6880 hc         1 1LA       0.037700
    140 H71        -11.5270    -6.7330    -0.9330 hc         1 1LA       0.037700
    141 H72        -10.1490    -8.6690    -0.1260 hc         1 1LA       0.037700
    142 H73        -10.7790    -8.4370     1.4890 hc         1 1LA       0.037700
    143 H74        -13.1010    -8.8570     0.6400 hc         1 1LA       0.036700
    144 H75        -12.4640    -9.0990    -0.9720 hc         1 1LA       0.036700
    145 H76        -11.1010   -11.0310    -0.1400 hc         1 1LA       0.037200
    146 H77        -11.7440   -10.7890     1.4690 hc         1 1LA       0.037200
    147 H78        -14.0580   -11.2170     0.6060 hc         1 1LA       0.036700
    148 H79        -13.4120   -11.4620    -1.0010 hc         1 1LA       0.036700
    149 H80        -12.0530   -13.3920    -0.1610 hc         1 1LA       0.036700
    150 H81        -12.6990   -13.1460     1.4460 hc         1 1LA       0.036700
    151 H82        -15.0080   -13.5810     0.5820 hc         1 1LA       0.036700
    152 H83        -14.3610   -13.8250    -1.0240 hc         1 1LA       0.036700
    153 H84        -14.7350   -16.0180     0.1110 hc         1 1LA       0.031367
    154 H85        -13.0180   -15.7820    -0.1960 hc         1 1LA       0.031367
    155 H86        -13.6620   -15.5370     1.4240 hc         1 1LA       0.031367
    156 H87         -7.7920     5.3040     1.2980 h1         1 1LA       0.056200
    157 H88         -6.0770     5.6760     1.1230 h1         1 1LA       0.056200
    158 H89         -7.7850     7.1760    -0.3480 h2         1 1LA       0.071700
    159 H90         -7.7450     7.7850    -2.6700 h1         1 1LA       0.066700
    160 H91         -9.5620     6.5910    -2.3890 ho         1 1LA       0.414000
    161 H92         -6.4570     5.0820    -3.2300 h1         1 1LA       0.060700
    162 H93         -7.8720     6.0860    -4.8840 ho         1 1LA       0.429000
    163 H94         -4.4810     6.3110    -3.8050 h1         1 1LA       0.051700
    164 H95         -5.6070     8.3060    -4.4090 ho         1 1LA       0.424000
    165 H96         -4.7670     5.5890    -1.5650 h1         1 1LA       0.059700
    166 H97         -2.7880     7.0590    -2.0900 h1         1 1LA       0.069700
    167 H98         -3.6500     8.4070    -1.3230 h1         1 1LA       0.069700
    168 H99         -2.6720     5.7100     1.8130 hn         1 1LA       0.373500
    169 H100        -1.7330     4.8140     3.6820 ha         1 1LA       0.161500
    170 H101         0.0670     4.8360     5.3420 h4         1 1LA       0.015100
    171 H102         1.8960     8.0390     3.5420 h4         1 1LA       0.015100
    172 H103         0.1990     8.1810     1.8060 ha         1 1LA       0.161500
@<TRIPOS>BOND
     1     1     2 1   
     2     1    70 1   
     3     1    71 1   
     4     1    72 1   
     5     2     3 1   
     6     2    73 1   
     7     2    74 1   
     8     3     4 1   
     9     3    75 1   
    10     3    76 1   
    11     4     5 1   
    12     4    77 1   
    13     4    78 1   
    14     5     6 1   
    15     5    79 1   
    16     5    80 1   
    17     6     7 1   
    18     6    81 1   
    19     6    82 1   
    20     7     8 1   
    21     7    83 1   
    22     7    84 1   
    23     8     9 1   
    24     8    85 1   
    25     8    86 1   
    26     9    10 1   
    27     9    87 1   
    28     9    88 1   
    29    10    11 1   
    30    10    89 1   
    31    10    90 1   
    32    11    12 1   
    33    11    91 1   
    34    11    92 1   
    35    12    13 1   
    36    12    93 1   
    37    12    94 1   
    38    13    14 1   
    39    13    95 1   
    40    13    96 1   
    41    14    15 1   
    42    14    97 1   
    43    14    98 1   
    44    15    16 1   
    45    15    99 1   
    46    15   100 1   
    47    16    17 1   
    48    16   101 1   
    49    16   102 1   
    50    17    18 1   
    51    17   103 1   
    52    17   104 1   
    53    18    19 1   
    54    18   105 1   
    55    18   106 1   
    56    19    20 1   
    57    19   107 1   
    58    19   108 1   
    59    20    21 1   
    60    20   109 1   
    61    20   110 1   
    62    21    22 1   
    63    21   111 1   
    64    21   112 1   
    65    22    23 1   
    66    22   113 1   
    67    22   114 1   
    68    23    24 1   
    69    23   115 1   
    70    23   116 1   
    71    24    25 1   
    72    24   117 1   
    73    24   118 1   
    74    25    26 1   
    75    25   119 1   
    76    25   120 1   
    77    26    27 2   
    78    26    28 1   
    79    28    29 1   
    80    28   121 1   
    81    29    30 1   
    82    29    48 1   
    83    29   122 1   
    84    30    31 1   
    85    30    32 1   
    86    30   123 1   
    87    31   124 1   
    88    32    33 1   
    89    32    34 1   
    90    32   125 1   
    91    33   126 1   
    92    34    35 1   
    93    34   127 1   
    94    34   128 1   
    95    35    36 1   
    96    35   129 1   
    97    35   130 1   
    98    36    37 1   
    99    36   131 1   
   100    36   132 1   
   101    37    38 1   
   102    37   133 1   
   103    37   134 1   
   104    38    39 1   
   105    38   135 1   
   106    38   136 1   
   107    39    40 1   
   108    39   137 1   
   109    39   138 1   
   110    40    41 1   
   111    40   139 1   
   112    40   140 1   
   113    41    42 1   
   114    41   141 1   
   115    41   142 1   
   116    42    43 1   
   117    42   143 1   
   118    42   144 1   
   119    43    44 1   
   120    43   145 1   
   121    43   146 1   
   122    44    45 1   
   123    44   147 1   
   124    44   148 1   
   125    45    46 1   
   126    45   149 1   
   127    45   150 1   
   128    46    47 1   
   129    46   151 1   
   130    46   152 1   
   131    47   153 1   
   132    47   154 1   
   133    47   155 1   
   134    48    49 1   
   135    48   156 1   
   136    48   157 1   
   137    49    50 1   
   138    50    51 1   
   139    50    52 1   
   140    50   158 1   
   141    51    58 1   
   142    52    53 1   
   143    52    54 1   
   144    52   159 1   
   145    53   160 1   
   146    54    55 1   
   147    54    56 1   
   148    54   161 1   
   149    55   162 1   
   150    56    57 1   
   151    56    58 1   
   152    56   163 1   
   153    57   164 1   
   154    58    59 1   
   155    58   165 1   
   156    59    60 1   
   157    59   166 1   
   158    59   167 1   
   159    60    61 1   
   160    61    62 2   
   161    61    63 1   
   162    63    64 1   
   163    63   168 1   
   164    64    65 ar  
   165    64    69 ar  
   166    65    66 ar  
   167    65   169 1   
   168    66    67 ar  
   169    66   170 1   
   170    67    68 ar  
   171    68    69 ar  
   172    68   171 1   
   173    69   172 1   
@<TRIPOS>SUBSTRUCTURE
     1 1LA         1 TEMP              0 ****  ****    0 ROOT
