@<TRIPOS>MOLECULE
1LB
   26    27     1     0     0
SMALL
No Charge or Current Charge


@<TRIPOS>ATOM
      1 C01         -2.2390     0.0670     0.3210 c3         1 1LB      -0.088600
      2 C02         -2.1600     1.4840     0.6850 c1         1 1LB       0.314900
      3 N03         -2.0790     2.6030     0.9980 n1         1 1LB      -0.442000
      4 C04         -3.7010    -0.3360     0.1100 c          1 1LB       0.610100
      5 N05         -4.2360    -1.1780     1.0240 nt         1 1LB      -0.605000
      6 O06         -4.3880     0.0750    -0.8110 o          1 1LB      -0.578100
      7 C07         -1.3740    -0.2660    -0.9260 c3         1 1LB      -0.011100
      8 C08          0.1160    -0.0210    -0.7010 ca         1 1LB      -0.132300
      9 C09          0.7470     1.1210    -1.2640 ca         1 1LB      -0.058000
     10 C10          2.1240     1.3580    -1.0560 ca         1 1LB      -0.124000
     11 C11          2.8340     0.4330    -0.2830 ca         1 1LB      -0.033200
     12 N12          4.1690     0.4140     0.0760 na         1 1LB      -0.061400
     13 N13          4.4450    -0.7190     0.8680 nc         1 1LB      -0.512100
     14 C14          3.2690    -1.3630     0.9710 cd         1 1LB       0.353800
     15 C15          2.2340    -0.6580     0.2540 ca         1 1LB      -0.234900
     16 C16          0.8720    -0.9320     0.0730 ca         1 1LB      -0.029000
     17 H011        -1.8490    -0.4980     1.1740 hc         1 1LB       0.080700
     18 H051        -5.1990    -1.4630     0.9260 hn         1 1LB       0.318500
     19 H052        -3.6780    -1.5200     1.7930 hn         1 1LB       0.318500
     20 H071        -1.5290    -1.3190    -1.1920 hc         1 1LB       0.062700
     21 H072        -1.7320     0.3140    -1.7870 hc         1 1LB       0.062700
     22 H091         0.1700     1.8260    -1.8580 ha         1 1LB       0.122000
     23 H101         2.6130     2.2310    -1.4820 ha         1 1LB       0.125000
     24 H121         4.8800     1.1000    -0.1730 hn         1 1LB       0.378000
     25 H141         3.2160    -2.2830     1.5400 h4         1 1LB       0.049800
     26 H161         0.4150    -1.8160     0.5150 ha         1 1LB       0.112000
@<TRIPOS>BOND
     1     1     2 1   
     2     1     4 1   
     3     1     7 1   
     4     1    17 1   
     5     2     3 3   
     6     4     5 1   
     7     4     6 2   
     8     5    18 1   
     9     5    19 1   
    10     7     8 1   
    11     7    20 1   
    12     7    21 1   
    13     8     9 ar  
    14     8    16 ar  
    15     9    10 ar  
    16     9    22 1   
    17    10    11 ar  
    18    10    23 1   
    19    11    12 1   
    20    11    15 ar  
    21    12    13 1   
    22    12    24 1   
    23    13    14 2   
    24    14    15 1   
    25    14    25 1   
    26    15    16 ar  
    27    16    26 1   
@<TRIPOS>SUBSTRUCTURE
     1 1LB         1 TEMP              0 ****  ****    0 ROOT
