@<TRIPOS>MOLECULE
1LB
   26    27     1     0     0
SMALL
bcc


@<TRIPOS>ATOM
      1 C01         -2.2190     0.1700     0.4300 c3         1 1LB      -0.088600
      2 C02         -2.0430     1.6060     0.5870 c1         1 1LB       0.225700
      3 N03         -1.8830     2.7380     0.7080 n1         1 1LB      -0.352800
      4 C04         -3.7030    -0.1260     0.1980 c          1 1LB       0.677100
      5 N05         -4.1160    -1.2890     0.7050 nt         1 1LB      -0.672000
      6 O06         -4.3990     0.6400    -0.4450 o          1 1LB      -0.578100
      7 C07         -1.3890    -0.3580    -0.7660 c3         1 1LB      -0.011100
      8 C08          0.0840    -0.1100    -0.5980 ca         1 1LB      -0.132300
      9 C09          0.6730     1.0370    -1.1810 ca         1 1LB      -0.076000
     10 C10          2.0090     1.3330    -1.0440 ca         1 1LB      -0.142000
     11 C11          2.7790     0.4410    -0.2910 ca         1 1LB      -0.033200
     12 N12          4.0920     0.4230     0.0350 na         1 1LB      -0.011100
     13 N13          4.4150    -0.6360     0.7810 nc         1 1LB      -0.512100
     14 C14          3.3180    -1.3280     0.9550 cd         1 1LB       0.353800
     15 C15          2.2200    -0.7060     0.3000 ca         1 1LB      -0.234900
     16 C16          0.8570    -0.9800     0.1410 ca         1 1LB      -0.047000
     17 H011        -1.8650    -0.3070     1.3480 hc         1 1LB       0.080700
     18 H051        -5.0640    -1.5990     0.5610 hn         1 1LB       0.318500
     19 H052        -3.5200    -1.8730     1.2650 hn         1 1LB       0.318500
     20 H071        -1.5860    -1.4280    -0.8500 hc         1 1LB       0.062700
     21 H072        -1.7560     0.1070    -1.6820 hc         1 1LB       0.062700
     22 H091         0.0480     1.7030    -1.7630 ha         1 1LB       0.140000
     23 H101         2.4400     2.2130    -1.5020 ha         1 1LB       0.143000
     24 H121         4.8020     1.0890    -0.2190 hn         1 1LB       0.327700
     25 H141         3.3270    -2.2400     1.5320 h4         1 1LB       0.049800
     26 H161         0.4180    -1.8650     0.5890 ha         1 1LB       0.130000
@<TRIPOS>BOND
     1     1     2 1   
     2     1     4 1   
     3     1     7 1   
     4     1    17 1   
     5     2     3 3   
     6     4     5 1   
     7     4     6 2   
     8     5    18 1   
     9     5    19 1   
    10     7     8 1   
    11     7    20 1   
    12     7    21 1   
    13     8     9 ar  
    14     8    16 ar  
    15     9    10 ar  
    16     9    22 1   
    17    10    11 ar  
    18    10    23 1   
    19    11    12 1   
    20    11    15 ar  
    21    12    13 1   
    22    12    24 1   
    23    13    14 2   
    24    14    15 1   
    25    14    25 1   
    26    15    16 ar  
    27    16    26 1   
@<TRIPOS>SUBSTRUCTURE
     1 1LB         1 TEMP              0 ****  ****    0 ROOT
