@<TRIPOS>MOLECULE
1LC
   38    40     1     0     0
SMALL
No Charge or Current Charge


@<TRIPOS>ATOM
      1 O01         -1.3920    -0.9830     1.7440 o          1 1LC      -0.530100
      2 C02         -1.3570    -0.1680     0.8290 c          1 1LC       0.621900
      3 C03         -0.0990     0.6350     0.5760 ca         1 1LC      -0.155600
      4 C04          1.1600     0.0330     0.7940 ca         1 1LC      -0.051000
      5 C05          2.3530     0.7520     0.5820 ca         1 1LC      -0.103300
      6 C06          3.7080     0.0820     0.7990 c3         1 1LC      -0.011100
      7 C07          4.4060    -0.3160    -0.5300 c3         1 1LC      -0.088600
      8 C08          3.6320    -1.3070    -1.2830 c1         1 1LC       0.294900
      9 N09          2.9990    -2.0720    -1.8920 n1         1 1LC      -0.444000
     10 C10          5.8250    -0.8380    -0.2820 c          1 1LC       0.614100
     11 N11          6.8260    -0.2160    -0.9460 nt         1 1LC      -0.603000
     12 O12          6.0780    -1.7780     0.4540 o          1 1LC      -0.583100
     13 C13          2.2880     2.0930     0.1660 ca         1 1LC      -0.090000
     14 C14          1.0430     2.7110    -0.0280 ca         1 1LC      -0.121000
     15 C15         -0.1440     1.9920     0.1810 ca         1 1LC      -0.081000
     16 C16         -2.5560     0.1340    -0.0050 cc         1 1LC      -0.235400
     17 C17         -2.5410     0.7120    -1.2710 cd         1 1LC      -0.088100
     18 N18         -3.8570     0.7050    -1.7930 na         1 1LC      -0.314400
     19 C19         -4.6720     0.0770    -0.8730 ca         1 1LC       0.353500
     20 N20         -5.9930    -0.1710    -0.9690 nb         1 1LC      -0.678000
     21 C21         -6.5790    -0.8100     0.0760 ca         1 1LC       0.353900
     22 C22         -5.8720    -1.2110     1.2280 ca         1 1LC      -0.188000
     23 C23         -4.4930    -0.9460     1.3160 ca         1 1LC      -0.017000
     24 C24         -3.9150    -0.2900     0.2190 ca         1 1LC      -0.091800
     25 H041         1.2100    -1.0060     1.1160 ha         1 1LC       0.134000
     26 H062         4.3640     0.7680     1.3510 hc         1 1LC       0.075700
     27 H061         3.6010    -0.8030     1.4390 hc         1 1LC       0.075700
     28 H071         4.4770     0.5730    -1.1660 hc         1 1LC       0.085700
     29 H112         7.7750    -0.5340    -0.8150 hn         1 1LC       0.321500
     30 H111         6.6270     0.5590    -1.5620 hn         1 1LC       0.321500
     31 H131         3.2010     2.6610     0.0010 ha         1 1LC       0.112000
     32 H141         0.9980     3.7550    -0.3340 ha         1 1LC       0.116000
     33 H151        -1.0970     2.5030     0.0580 ha         1 1LC       0.119000
     34 H171        -1.7010     1.0960    -1.8500 h4         1 1LC       0.223000
     35 H181        -4.1570     1.0550    -2.6940 hn         1 1LC       0.365000
     36 H211        -7.6480    -1.0040    -0.0130 h4         1 1LC       0.020100
     37 H1          -6.3920    -1.7170     2.0370 ha         1 1LC       0.125000
     38 H231        -3.9170    -1.2350     2.1910 ha         1 1LC       0.142000
@<TRIPOS>BOND
     1     1     2 2   
     2     2     3 1   
     3     2    16 1   
     4     3     4 ar  
     5     3    15 ar  
     6     4     5 ar  
     7     4    25 1   
     8     5     6 1   
     9     5    13 ar  
    10     6     7 1   
    11     6    26 1   
    12     6    27 1   
    13     7     8 1   
    14     7    10 1   
    15     7    28 1   
    16     8     9 3   
    17    10    11 1   
    18    10    12 2   
    19    11    29 1   
    20    11    30 1   
    21    13    14 ar  
    22    13    31 1   
    23    14    15 ar  
    24    14    32 1   
    25    15    33 1   
    26    16    17 2   
    27    16    24 1   
    28    17    18 1   
    29    17    34 1   
    30    18    19 1   
    31    18    35 1   
    32    19    20 ar  
    33    19    24 ar  
    34    20    21 ar  
    35    21    22 ar  
    36    21    36 1   
    37    22    23 ar  
    38    22    37 1   
    39    23    24 ar  
    40    23    38 1   
@<TRIPOS>SUBSTRUCTURE
     1 1LC         1 TEMP              0 ****  ****    0 ROOT
