@<TRIPOS>MOLECULE
1LC
   38    40     1     0     0
SMALL
bcc


@<TRIPOS>ATOM
      1 O01         -1.3150    -0.8290     1.8350 o          1 1LC      -0.530100
      2 C02         -1.2840    -0.0140     0.9260 c          1 1LC       0.621900
      3 C03         -0.0580     0.8090     0.7110 ca         1 1LC      -0.155600
      4 C04          1.1860     0.2130     0.9120 ca         1 1LC      -0.069000
      5 C05          2.3600     0.9370     0.7590 ca         1 1LC      -0.103300
      6 C06          3.7000     0.2740     0.9180 c3         1 1LC      -0.011100
      7 C07          4.3010    -0.1160    -0.4410 c3         1 1LC      -0.088600
      8 C08          3.4320    -1.0570    -1.1370 c1         1 1LC       0.205700
      9 N09          2.7450    -1.8090    -1.6710 n1         1 1LC      -0.354800
     10 C10          5.7190    -0.7080    -0.3130 c          1 1LC       0.681100
     11 N11          6.2700    -1.0770    -1.4720 nt         1 1LC      -0.670000
     12 O12          6.2630    -0.8040     0.7690 o          1 1LC      -0.583100
     13 C13          2.2770     2.2890     0.4280 ca         1 1LC      -0.108000
     14 C14          1.0460     2.8980     0.2530 ca         1 1LC      -0.139000
     15 C15         -0.1230     2.1610     0.3850 ca         1 1LC      -0.099000
     16 C16         -2.4140     0.1550     0.0320 cc         1 1LC      -0.235400
     17 C17         -2.4320     0.7890    -1.1940 cd         1 1LC      -0.038100
     18 N18         -3.6520     0.6790    -1.7540 na         1 1LC      -0.264100
     19 C19         -4.4790    -0.0280    -0.9220 ca         1 1LC       0.418800
     20 N20         -5.7460    -0.3090    -1.1630 nb         1 1LC      -0.678000
     21 C21         -6.3520    -1.0100    -0.2140 ca         1 1LC       0.419200
     22 C22         -5.7280    -1.4330     0.9630 ca         1 1LC      -0.271300
     23 C23         -4.3970    -1.1250     1.1940 ca         1 1LC      -0.035000
     24 C24         -3.7320    -0.3890     0.2170 ca         1 1LC      -0.157100
     25 H041         1.2390    -0.8360     1.1810 ha         1 1LC       0.152000
     26 H062         4.4000     0.9560     1.4030 hc         1 1LC       0.075700
     27 H061         3.6200    -0.6100     1.5510 hc         1 1LC       0.075700
     28 H071         4.3700     0.7770    -1.0720 hc         1 1LC       0.085700
     29 H112         7.2000    -1.4660    -1.4900 hn         1 1LC       0.321500
     30 H111         5.8140    -0.9380    -2.3590 hn         1 1LC       0.321500
     31 H131         3.1850     2.8710     0.3170 ha         1 1LC       0.130000
     32 H141         0.9930     3.9530     0.0180 ha         1 1LC       0.134000
     33 H151        -1.0790     2.6530     0.2640 ha         1 1LC       0.137000
     34 H171        -1.6370     1.2940    -1.7190 h4         1 1LC       0.173000
     35 H181        -3.9130     1.0500    -2.6550 hn         1 1LC       0.314700
     36 H211        -7.3930    -1.2560    -0.3890 h4         1 1LC       0.020100
     37 H1          -6.2940    -2.0030     1.6850 ha         1 1LC       0.143000
     38 H231        -3.9010    -1.4510     2.0970 ha         1 1LC       0.160000
@<TRIPOS>BOND
     1     1     2 2   
     2     2     3 1   
     3     2    16 1   
     4     3     4 ar  
     5     3    15 ar  
     6     4     5 ar  
     7     4    25 1   
     8     5     6 1   
     9     5    13 ar  
    10     6     7 1   
    11     6    26 1   
    12     6    27 1   
    13     7     8 1   
    14     7    10 1   
    15     7    28 1   
    16     8     9 3   
    17    10    11 1   
    18    10    12 2   
    19    11    29 1   
    20    11    30 1   
    21    13    14 ar  
    22    13    31 1   
    23    14    15 ar  
    24    14    32 1   
    25    15    33 1   
    26    16    17 2   
    27    16    24 1   
    28    17    18 1   
    29    17    34 1   
    30    18    19 1   
    31    18    35 1   
    32    19    20 ar  
    33    19    24 ar  
    34    20    21 ar  
    35    21    22 ar  
    36    21    36 1   
    37    22    23 ar  
    38    22    37 1   
    39    23    24 ar  
    40    23    38 1   
@<TRIPOS>SUBSTRUCTURE
     1 1LC         1 TEMP              0 ****  ****    0 ROOT
