@<TRIPOS>MOLECULE
1LD
   13    13     1     0     0
SMALL
bcc


@<TRIPOS>ATOM
      1 N1           1.2050     1.1710     0.0210 ns         1 1LD      -0.469100
      2 C6          -0.1020     1.5140     0.0380 cc         1 1LD       0.033600
      3 C2           1.6410    -0.1470    -0.0010 c          1 1LD       0.854900
      4 O2           2.8410    -0.3850    -0.0130 o          1 1LD      -0.611500
      5 N3           0.6920    -1.1130    -0.0070 nc         1 1LD      -0.764100
      6 C4          -0.5910    -0.8190     0.0090 cd         1 1LD       0.772500
      7 N4          -1.4870    -1.8010     0.0040 nv         1 1LD      -0.916800
      8 C5          -1.0270     0.5420     0.0320 cd         1 1LD      -0.149100
      9 F           -2.3420     0.8150     0.0490 f          1 1LD      -0.164500
     10 H1           1.9010     1.9020     0.0290 hn         1 1LD       0.337500
     11 H2          -0.3460     2.5660     0.0560 h4         1 1LD       0.166000
     12 H3          -1.1750    -2.7580    -0.0040 hn         1 1LD       0.455300
     13 H4          -2.4770    -1.6290     0.0230 hn         1 1LD       0.455300
@<TRIPOS>BOND
     1     1     2 1   
     2     1     3 1   
     3     1    10 1   
     4     2     8 2   
     5     2    11 1   
     6     3     4 2   
     7     3     5 1   
     8     5     6 2   
     9     6     7 1   
    10     6     8 1   
    11     7    12 1   
    12     7    13 1   
    13     8     9 1   
@<TRIPOS>SUBSTRUCTURE
     1 1LD         1 TEMP              0 ****  ****    0 ROOT
