@<TRIPOS>MOLECULE
1LD
   13    13     1     0     0
SMALL
No Charge or Current Charge


@<TRIPOS>ATOM
      1 N1           1.1880     1.1380     0.0480 ns         1 1LD      -0.515600
      2 C6          -0.1370     1.5550     0.0500 cc         1 1LD      -0.016400
      3 C2           1.6060    -0.1610    -0.0140 c          1 1LD       0.712400
      4 O2           2.7880    -0.4400    -0.0080 o          1 1LD      -0.536000
      5 N3           0.6370    -1.1240    -0.0810 nc         1 1LD      -0.764100
      6 C4          -0.6200    -0.7870    -0.0890 cd         1 1LD       0.772500
      7 N4          -1.4520    -1.8260    -0.1500 nv         1 1LD      -1.027200
      8 C5          -1.0960     0.5730    -0.0190 cd         1 1LD      -0.149100
      9 F           -2.4160     0.8510    -0.0200 f          1 1LD      -0.164500
     10 H1           1.9450     1.8140     0.0960 hn         1 1LD       0.451000
     11 H2          -0.2980     2.6300     0.1080 h4         1 1LD       0.216000
     12 H3          -1.0250    -2.7030     0.1130 hn         1 1LD       0.510500
     13 H4          -2.3870    -1.6620     0.2000 hn         1 1LD       0.510500
@<TRIPOS>BOND
     1     1     2 1   
     2     1     3 1   
     3     1    10 1   
     4     2     8 2   
     5     2    11 1   
     6     3     4 2   
     7     3     5 1   
     8     5     6 2   
     9     6     7 1   
    10     6     8 1   
    11     7    12 1   
    12     7    13 1   
    13     8     9 1   
@<TRIPOS>SUBSTRUCTURE
     1 1LD         1 TEMP              0 ****  ****    0 ROOT
