@<TRIPOS>MOLECULE
1LE
   61    63     1     0     0
SMALL
bcc


@<TRIPOS>ATOM
      1 O01          4.5950     0.2500     2.0190 o          1 1LE      -0.579100
      2 C02          4.2670     0.1820     0.8510 c          1 1LE       0.680100
      3 N03          4.8740    -0.5430    -0.0960 ns         1 1LE      -0.575900
      4 C04          6.0350    -1.4240     0.0840 c3         1 1LE       0.140400
      5 C05          7.2190    -0.6610     0.6740 c3         1 1LE      -0.099100
      6 C06          5.6600    -2.6200     0.9590 c3         1 1LE      -0.099100
      7 C07          6.3730    -1.8830    -1.3420 c3         1 1LE       0.127400
      8 O08          7.4420    -2.7890    -1.2970 oh         1 1LE      -0.588800
      9 C09          3.0540     0.9820     0.3230 c3         1 1LE      -0.090600
     10 C10          3.5430     2.0760    -0.5060 c1         1 1LE       0.212700
     11 N11          3.9410     2.9440    -1.1470 n1         1 1LE      -0.358800
     12 C12          2.1580     1.5000     1.4590 c3         1 1LE      -0.006100
     13 C13          0.9270     2.1880     0.9340 ca         1 1LE      -0.132300
     14 C14          0.9300     3.5880     0.7340 ca         1 1LE      -0.079000
     15 C15         -0.1630     4.2630     0.2450 ca         1 1LE      -0.144000
     16 C16         -1.2930     3.4990    -0.0620 ca         1 1LE      -0.038200
     17 N17         -2.5160     3.8450    -0.5230 na         1 1LE      -0.003100
     18 N18         -3.3210     2.7960    -0.6580 nc         1 1LE      -0.508100
     19 C19         -2.6470     1.7300    -0.2900 cd         1 1LE       0.400500
     20 C20         -3.2720     0.4060    -0.2980 ca         1 1LE      -0.022900
     21 C21         -2.5000    -0.7330    -0.5120 ca         1 1LE      -0.226500
     22 C22         -3.1000    -1.9890    -0.5080 ca         1 1LE       0.153100
     23 O23         -2.4400    -3.1440    -0.7000 os         1 1LE      -0.300400
     24 C24         -1.0360    -3.0990    -0.8610 c3         1 1LE       0.122700
     25 C25         -4.4780    -2.1070    -0.3120 ca         1 1LE       0.031100
     26 O26         -5.0690    -3.3290    -0.3400 os         1 1LE      -0.304900
     27 C27         -5.1400    -3.9740     0.9260 c3         1 1LE       0.125700
     28 C28         -5.2490    -0.9590    -0.1030 ca         1 1LE       0.153100
     29 O29         -6.5620    -1.1690     0.0840 os         1 1LE      -0.300400
     30 C30         -7.4030    -0.0480     0.2710 c3         1 1LE       0.122700
     31 C31         -4.6460     0.2950    -0.0970 ca         1 1LE      -0.226500
     32 C32         -1.3260     2.1050     0.1130 ca         1 1LE      -0.215900
     33 C33         -0.1990     1.4520     0.6290 ca         1 1LE      -0.050000
     34 H031         4.4270    -0.5710    -1.0000 hn         1 1LE       0.309500
     35 H052         7.0210    -0.3330     1.6910 hc         1 1LE       0.051367
     36 H053         8.0980    -1.3030     0.6990 hc         1 1LE       0.051367
     37 H051         7.4580     0.2160     0.0700 hc         1 1LE       0.051367
     38 H063         4.8150    -3.1640     0.5340 hc         1 1LE       0.051367
     39 H061         6.4980    -3.3110     1.0480 hc         1 1LE       0.051367
     40 H062         5.3890    -2.2980     1.9630 hc         1 1LE       0.051367
     41 H071         5.4790    -2.3420    -1.7880 h1         1 1LE       0.020700
     42 H072         6.6180    -0.9970    -1.9430 h1         1 1LE       0.020700
     43 H081         7.7570    -2.9280    -2.1940 ho         1 1LE       0.410000
     44 H091         2.4610     0.3310    -0.3280 hc         1 1LE       0.079700
     45 H121         1.8740     0.6390     2.0630 hc         1 1LE       0.072200
     46 H122         2.7320     2.1700     2.1000 hc         1 1LE       0.072200
     47 H141         1.8200     4.1490     0.9900 ha         1 1LE       0.139000
     48 H151        -0.1490     5.3370     0.1140 ha         1 1LE       0.143000
     49 H171        -2.8500     4.7640    -0.7620 hn         1 1LE       0.329700
     50 H211        -1.4440    -0.6320    -0.7170 ha         1 1LE       0.145000
     51 H242        -0.5390    -2.6630     0.0090 h1         1 1LE       0.041033
     52 H243        -0.7070    -4.1290    -0.9700 h1         1 1LE       0.041033
     53 H241        -0.7430    -2.5420    -1.7550 h1         1 1LE       0.041033
     54 H272        -5.7270    -3.3940     1.6430 h1         1 1LE       0.033367
     55 H273        -5.6290    -4.9340     0.7700 h1         1 1LE       0.033367
     56 H271        -4.1470    -4.1520     1.3470 h1         1 1LE       0.033367
     57 H302        -8.4120    -0.4360     0.3800 h1         1 1LE       0.041033
     58 H303        -7.1430     0.5140     1.1720 h1         1 1LE       0.041033
     59 H301        -7.3760     0.6280    -0.5870 h1         1 1LE       0.041033
     60 H311        -5.2250     1.1920     0.0740 ha         1 1LE       0.145000
     61 H331        -0.2070     0.3850     0.8110 ha         1 1LE       0.135000
@<TRIPOS>BOND
     1     1     2 2   
     2     2     3 1   
     3     2     9 1   
     4     3     4 1   
     5     3    34 1   
     6     4     5 1   
     7     4     6 1   
     8     4     7 1   
     9     5    35 1   
    10     5    36 1   
    11     5    37 1   
    12     6    38 1   
    13     6    39 1   
    14     6    40 1   
    15     7     8 1   
    16     7    41 1   
    17     7    42 1   
    18     8    43 1   
    19     9    10 1   
    20     9    12 1   
    21     9    44 1   
    22    10    11 3   
    23    12    13 1   
    24    12    45 1   
    25    12    46 1   
    26    13    14 ar  
    27    13    33 ar  
    28    14    15 ar  
    29    14    47 1   
    30    15    16 ar  
    31    15    48 1   
    32    16    17 1   
    33    16    32 ar  
    34    17    18 1   
    35    17    49 1   
    36    18    19 2   
    37    19    20 1   
    38    19    32 1   
    39    20    21 ar  
    40    20    31 ar  
    41    21    22 ar  
    42    21    50 1   
    43    22    23 1   
    44    22    25 ar  
    45    23    24 1   
    46    24    51 1   
    47    24    52 1   
    48    24    53 1   
    49    25    26 1   
    50    25    28 ar  
    51    26    27 1   
    52    27    54 1   
    53    27    55 1   
    54    27    56 1   
    55    28    29 1   
    56    28    31 ar  
    57    29    30 1   
    58    30    57 1   
    59    30    58 1   
    60    30    59 1   
    61    31    60 1   
    62    32    33 ar  
    63    33    61 1   
@<TRIPOS>SUBSTRUCTURE
     1 1LE         1 TEMP              0 ****  ****    0 ROOT
