@<TRIPOS>MOLECULE
1LE
   61    63     1     0     0
SMALL
No Charge or Current Charge


@<TRIPOS>ATOM
      1 O01          5.3290     1.1980     0.9660 o          1 1LE      -0.579100
      2 C02          4.3870     0.6510     0.4100 c          1 1LE       0.613100
      3 N03          4.3720    -0.7000     0.0990 ns         1 1LE      -0.508900
      4 C04          5.4280    -1.6980     0.3630 c3         1 1LE       0.140400
      5 C05          6.7320    -1.2940    -0.3790 c3         1 1LE      -0.099100
      6 C06          5.6820    -1.8030     1.8920 c3         1 1LE      -0.099100
      7 C07          4.9070    -3.0700    -0.1850 c3         1 1LE       0.150600
      8 O08          5.8490    -4.1390     0.0100 oh         1 1LE      -0.651000
      9 C09          3.1240     1.4170     0.0050 c3         1 1LE      -0.090600
     10 C10          3.4460     2.4330    -1.0000 c1         1 1LE       0.301900
     11 N11          3.6800     3.2300    -1.8170 n1         1 1LE      -0.448000
     12 C12          2.4130     2.0180     1.2470 c3         1 1LE      -0.006100
     13 C13          1.0610     2.6440     0.9130 ca         1 1LE      -0.132300
     14 C14          0.9120     4.0550     0.8840 ca         1 1LE      -0.061000
     15 C15         -0.3390     4.6390     0.5900 ca         1 1LE      -0.126000
     16 C16         -1.4110     3.7820     0.3130 ca         1 1LE      -0.038200
     17 N17         -2.7330     4.0850     0.0440 na         1 1LE      -0.053400
     18 N18         -3.4810     2.9060    -0.1280 nc         1 1LE      -0.508100
     19 C19         -2.5870     1.9110     0.0110 cd         1 1LE       0.400500
     20 C20         -2.9430     0.4790    -0.1280 ca         1 1LE      -0.022900
     21 C21         -2.0630    -0.4240    -0.7500 ca         1 1LE      -0.208500
     22 C22         -2.4140    -1.7790    -0.9180 ca         1 1LE       0.153100
     23 O23         -1.5440    -2.6800    -1.5140 os         1 1LE      -0.323600
     24 C24         -0.2320    -2.3080    -1.9720 c3         1 1LE       0.145900
     25 C25         -3.6750    -2.2530    -0.4850 ca         1 1LE       0.031100
     26 O26         -3.9300    -3.6110    -0.6910 os         1 1LE      -0.328100
     27 C27         -5.1390    -4.2930    -0.3140 c3         1 1LE       0.148900
     28 C28         -4.5930    -1.3340     0.1110 ca         1 1LE       0.153100
     29 O29         -5.8450    -1.7570     0.5290 os         1 1LE      -0.323600
     30 C30         -6.8140    -0.8800     1.1330 c3         1 1LE       0.145900
     31 C31         -4.2130     0.0190     0.2690 ca         1 1LE      -0.208500
     32 C32         -1.2680     2.4310     0.3150 ca         1 1LE      -0.215900
     33 C33         -0.0500     1.8130     0.6370 ca         1 1LE      -0.032000
     34 H031         3.5330    -1.0320    -0.3610 hn         1 1LE       0.309500
     35 H052         7.1360    -0.3470    -0.0050 hc         1 1LE       0.051367
     36 H053         7.5120    -2.0520    -0.2460 hc         1 1LE       0.051367
     37 H051         6.5470    -1.1840    -1.4540 hc         1 1LE       0.051367
     38 H063         4.7550    -2.0530     2.4230 hc         1 1LE       0.051367
     39 H061         6.4200    -2.5820     2.1160 hc         1 1LE       0.051367
     40 H062         6.0680    -0.8650     2.3060 hc         1 1LE       0.051367
     41 H071         3.9610    -3.3160     0.3160 h1         1 1LE       0.020700
     42 H072         4.6880    -2.9630    -1.2560 h1         1 1LE       0.020700
     43 H081         5.4420    -4.9530    -0.3610 ho         1 1LE       0.449000
     44 H091         2.4330     0.7120    -0.4700 hc         1 1LE       0.079700
     45 H121         2.2680     1.2240     1.9910 hc         1 1LE       0.072200
     46 H122         3.0700     2.7560     1.7260 hc         1 1LE       0.072200
     47 H141         1.7620     4.6990     1.0990 ha         1 1LE       0.121000
     48 H151        -0.4650     5.7190     0.5870 ha         1 1LE       0.125000
     49 H171        -3.1490     5.0140    -0.0110 hn         1 1LE       0.380000
     50 H211        -1.1130    -0.0510    -1.1180 ha         1 1LE       0.127000
     51 H242         0.3770    -1.9260    -1.1430 h1         1 1LE       0.041033
     52 H243         0.2820    -3.1800    -2.3970 h1         1 1LE       0.041033
     53 H241        -0.2940    -1.5380    -2.7510 h1         1 1LE       0.041033
     54 H272        -6.0070    -3.8740    -0.8400 h1         1 1LE       0.033367
     55 H273        -5.0700    -5.3550    -0.5800 h1         1 1LE       0.033367
     56 H271        -5.3050    -4.2290     0.7690 h1         1 1LE       0.033367
     57 H302        -7.7260    -1.4380     1.3790 h1         1 1LE       0.041033
     58 H303        -6.4220    -0.4450     2.0600 h1         1 1LE       0.041033
     59 H301        -7.0880    -0.0690     0.4470 h1         1 1LE       0.041033
     60 H311        -4.8940     0.7370     0.7160 ha         1 1LE       0.127000
     61 H331         0.0410     0.7300     0.6850 ha         1 1LE       0.117000
@<TRIPOS>BOND
     1     1     2 2   
     2     2     3 1   
     3     2     9 1   
     4     3     4 1   
     5     3    34 1   
     6     4     5 1   
     7     4     6 1   
     8     4     7 1   
     9     5    35 1   
    10     5    36 1   
    11     5    37 1   
    12     6    38 1   
    13     6    39 1   
    14     6    40 1   
    15     7     8 1   
    16     7    41 1   
    17     7    42 1   
    18     8    43 1   
    19     9    10 1   
    20     9    12 1   
    21     9    44 1   
    22    10    11 3   
    23    12    13 1   
    24    12    45 1   
    25    12    46 1   
    26    13    14 ar  
    27    13    33 ar  
    28    14    15 ar  
    29    14    47 1   
    30    15    16 ar  
    31    15    48 1   
    32    16    17 1   
    33    16    32 ar  
    34    17    18 1   
    35    17    49 1   
    36    18    19 2   
    37    19    20 1   
    38    19    32 1   
    39    20    21 ar  
    40    20    31 ar  
    41    21    22 ar  
    42    21    50 1   
    43    22    23 1   
    44    22    25 ar  
    45    23    24 1   
    46    24    51 1   
    47    24    52 1   
    48    24    53 1   
    49    25    26 1   
    50    25    28 ar  
    51    26    27 1   
    52    27    54 1   
    53    27    55 1   
    54    27    56 1   
    55    28    29 1   
    56    28    31 ar  
    57    29    30 1   
    58    30    57 1   
    59    30    58 1   
    60    30    59 1   
    61    31    60 1   
    62    32    33 ar  
    63    33    61 1   
@<TRIPOS>SUBSTRUCTURE
     1 1LE         1 TEMP              0 ****  ****    0 ROOT
