@<TRIPOS>MOLECULE
1LF
   52    54     1     0     0
SMALL
abcg2


@<TRIPOS>ATOM
      1 N1           2.3910    -1.9180     0.0620 ns         1 1LF      -0.510900
      2 C10         -0.9680     0.2860     0.4000 c6         1 1LF       0.219300
      3 C13          4.6240    -0.9540     0.1320 ca         1 1LF      -0.057300
      4 C15          6.3820    -0.6690    -1.5160 ca         1 1LF      -0.082000
      5 C17          5.6110     1.2200    -0.2600 ca         1 1LF      -0.067000
      6 C01         -6.0580     3.3040    -1.7380 c3         1 1LF       0.235100
      7 C02         -4.7000     1.5940    -0.6180 ca         1 1LF       0.430900
      8 N02         -5.8220     0.9030    -0.3810 nb         1 1LF      -0.323000
      9 C03         -5.6340    -0.2440     0.2600 ca         1 1LF       0.221300
     10 C04         -6.8530    -1.0630     0.5420 c3         1 1LF      -0.138400
     11 N03         -4.4710    -0.7230     0.6590 nb         1 1LF      -0.321000
     12 C05         -3.4020     0.0460     0.3730 ca         1 1LF       0.438900
     13 N04         -3.4720     1.2100    -0.2660 nb         1 1LF      -0.364000
     14 N05         -2.1950    -0.3880     0.7810 nh         1 1LF      -0.759300
     15 C06         -1.9790    -1.7270     1.3010 c6         1 1LF       0.219300
     16 C07         -1.2580    -2.5930     0.2710 c6         1 1LF      -0.088900
     17 C08          0.0090    -1.9500    -0.2980 c6         1 1LF      -0.138700
     18 C09         -0.2680    -0.4920    -0.7060 c6         1 1LF      -0.088900
     19 C11          1.1890    -2.0280     0.6600 c          1 1LF       0.606100
     20 O1           1.0690    -2.1690     1.8690 o          1 1LF      -0.596100
     21 C12          3.6480    -1.9110     0.7770 c3         1 1LF       0.138300
     22 C14          5.4770    -1.4710    -0.8360 ca         1 1LF      -0.115000
     23 C16          6.4490     0.6820    -1.2260 ca         1 1LF      -0.110000
     24 C18          4.7000     0.4170     0.4160 ca         1 1LF      -0.176300
     25 C1           3.8340     1.0380     1.4720 c3         1 1LF       0.356300
     26 F01          4.0920     0.5330     2.6900 f          1 1LF      -0.111333
     27 F02          4.0070     2.3590     1.5670 f          1 1LF      -0.111333
     28 F            2.5280     0.8420     1.2440 f          1 1LF      -0.111333
     29 H1           2.4320    -1.8820    -0.9440 hn         1 1LF       0.312500
     30 H2          -1.1920     1.2980     0.0760 h1         1 1LF       0.077700
     31 H3          -0.3300     0.3600     1.2850 h1         1 1LF       0.077700
     32 H4           7.0330    -1.1040    -2.2630 ha         1 1LF       0.122000
     33 H5           5.6850     2.2760    -0.0400 ha         1 1LF       0.134000
     34 H6          -5.8530     4.2670    -2.1980 h1         1 1LF       0.040700
     35 H7          -6.5250     2.6610    -2.4860 h1         1 1LF       0.040700
     36 H8          -6.7730     3.4580    -0.9290 h1         1 1LF       0.040700
     37 H9          -3.9580     3.2580    -1.4500 hn         1 1LF       0.506000
     38 H10         -7.3130    -1.3840    -0.3940 hc         1 1LF       0.058367
     39 H11         -6.6080    -1.9430     1.1320 hc         1 1LF       0.058367
     40 H12         -7.5950    -0.4690     1.0750 hc         1 1LF       0.058367
     41 H13         -1.3900    -1.6500     2.2160 h1         1 1LF       0.077700
     42 H14         -2.9350    -2.1700     1.5600 h1         1 1LF       0.077700
     43 H15         -1.0350    -3.5670     0.7100 hc         1 1LF       0.053700
     44 H16         -1.9420    -2.7750    -0.5630 hc         1 1LF       0.053700
     45 H17          0.2910    -2.4970    -1.2030 hc         1 1LF       0.052700
     46 H18         -0.9100    -0.4970    -1.5910 hc         1 1LF       0.053700
     47 H19          0.6560     0.0150    -0.9930 hc         1 1LF       0.053700
     48 H20          3.4520    -1.6750     1.8190 h1         1 1LF       0.069700
     49 H21          4.0940    -2.9100     0.7710 h1         1 1LF       0.069700
     50 H22          5.4320    -2.5300    -1.0600 ha         1 1LF       0.119000
     51 H23          7.1520     1.3220    -1.7410 ha         1 1LF       0.123000
     52 N01         -4.8120     2.7620    -1.2590 nu         1 1LF      -0.924100
@<TRIPOS>BOND
     1     1    19 1   
     2     1    21 1   
     3     1    29 1   
     4     2    14 1   
     5     2    18 1   
     6     2    30 1   
     7     2    31 1   
     8     3    21 1   
     9     3    22 ar  
    10     3    24 ar  
    11     4    22 ar  
    12     4    23 ar  
    13     4    32 1   
    14     5    23 ar  
    15     5    24 ar  
    16     5    33 1   
    17     6    34 1   
    18     6    35 1   
    19     6    36 1   
    20     6    52 1   
    21     7     8 ar  
    22     7    13 ar  
    23     7    52 1   
    24     8     9 ar  
    25     9    10 1   
    26     9    11 ar  
    27    10    38 1   
    28    10    39 1   
    29    10    40 1   
    30    11    12 ar  
    31    12    13 ar  
    32    12    14 1   
    33    14    15 1   
    34    15    16 1   
    35    15    41 1   
    36    15    42 1   
    37    16    17 1   
    38    16    43 1   
    39    16    44 1   
    40    17    18 1   
    41    17    19 1   
    42    17    45 1   
    43    18    46 1   
    44    18    47 1   
    45    19    20 2   
    46    21    48 1   
    47    21    49 1   
    48    22    50 1   
    49    23    51 1   
    50    24    25 1   
    51    25    26 1   
    52    25    27 1   
    53    25    28 1   
    54    37    52 1   
@<TRIPOS>SUBSTRUCTURE
     1 1LF         1 TEMP              0 ****  ****    0 ROOT
