@<TRIPOS>MOLECULE
1LF
   52    54     1     0     0
SMALL
No Charge or Current Charge


@<TRIPOS>ATOM
      1 N1           2.5480    -1.1320     0.1910 ns         1 1LF      -0.510900
      2 C10         -1.5240     0.8080    -0.2710 c6         1 1LF       0.219300
      3 C13          4.9750    -1.1050     0.6450 ca         1 1LF      -0.057300
      4 C15          6.8950    -2.3850    -0.1670 ca         1 1LF      -0.082000
      5 C17          6.9550     0.0440    -0.2090 ca         1 1LF      -0.067000
      6 C01         -7.4730     3.2220    -0.0520 c3         1 1LF       0.235100
      7 C02         -5.6550     1.4200    -0.1030 ca         1 1LF       0.430900
      8 N02         -6.5680     0.4540     0.0830 nb         1 1LF      -0.323000
      9 C03         -6.0590    -0.7910     0.1320 ca         1 1LF       0.221300
     10 C04         -7.0310    -1.9400     0.3300 c3         1 1LF      -0.138400
     11 N03         -4.7530    -1.0950     0.0070 nb         1 1LF      -0.321000
     12 C05         -3.9260    -0.0430    -0.1730 ca         1 1LF       0.438900
     13 N04         -4.3370     1.2390    -0.2370 nb         1 1LF      -0.364000
     14 N05         -2.5360    -0.3050    -0.3180 nh         1 1LF      -0.759300
     15 C06         -1.9620    -1.6570     0.0060 c6         1 1LF       0.219300
     16 C07         -0.7450    -1.9950    -0.8930 c6         1 1LF      -0.088900
     17 C08          0.3200    -0.8720    -0.8530 c6         1 1LF      -0.138700
     18 C09         -0.3000     0.5090    -1.1750 c6         1 1LF      -0.088900
     19 C11          1.2140    -0.8860     0.4090 c          1 1LF       0.606100
     20 O1           0.7720    -0.6900     1.5320 o          1 1LF      -0.596100
     21 C12          3.5670    -1.1470     1.2400 c3         1 1LF       0.138300
     22 C14          5.6060    -2.3380     0.3810 ca         1 1LF      -0.115000
     23 C16          7.5700    -1.1930    -0.4600 ca         1 1LF      -0.110000
     24 C18          5.6520     0.1130     0.3420 ca         1 1LF      -0.176300
     25 C1           5.0100     1.4920     0.6060 c3         1 1LF       0.356300
     26 F01          4.8260     1.7120     1.9280 f          1 1LF      -0.111333
     27 F02          5.7620     2.5220     0.1520 f          1 1LF      -0.111333
     28 F            3.8030     1.6180     0.0080 f          1 1LF      -0.111333
     29 H1           2.8410    -1.2800    -0.7660 hn         1 1LF       0.312500
     30 H2          -1.9490     1.7640    -0.6100 h1         1 1LF       0.077700
     31 H3          -1.1860     0.9630     0.7650 h1         1 1LF       0.077700
     32 H4           7.3710    -3.3430    -0.3640 ha         1 1LF       0.122000
     33 H5           7.5100     0.9490    -0.4480 ha         1 1LF       0.134000
     34 H6          -7.5010     4.3160    -0.1420 h1         1 1LF       0.040700
     35 H7          -8.1010     2.7930    -0.8450 h1         1 1LF       0.040700
     36 H8          -7.9020     2.9440     0.9200 h1         1 1LF       0.040700
     37 H9          -5.3490     3.4200    -0.3110 hn         1 1LF       0.506000
     38 H10         -7.3870    -2.3180    -0.6350 hc         1 1LF       0.058367
     39 H11         -6.5600    -2.7740     0.8640 hc         1 1LF       0.058367
     40 H12         -7.9060    -1.6290     0.9120 hc         1 1LF       0.058367
     41 H13         -1.6580    -1.6920     1.0630 h1         1 1LF       0.077700
     42 H14         -2.6990    -2.4610    -0.1350 h1         1 1LF       0.077700
     43 H15         -0.3040    -2.9540    -0.5870 hc         1 1LF       0.053700
     44 H16         -1.0950    -2.1290    -1.9260 hc         1 1LF       0.053700
     45 H17          1.0050    -1.0860    -1.6860 hc         1 1LF       0.052700
     46 H18         -0.6240     0.5280    -2.2250 hc         1 1LF       0.053700
     47 H19          0.4510     1.3030    -1.0670 hc         1 1LF       0.053700
     48 H20          3.4040    -0.3030     1.9200 h1         1 1LF       0.069700
     49 H21          3.4440    -2.0640     1.8310 h1         1 1LF       0.069700
     50 H22          5.0920    -3.2700     0.6030 ha         1 1LF       0.119000
     51 H23          8.5710    -1.2260    -0.8850 ha         1 1LF       0.123000
     52 N01         -6.0870     2.7290    -0.1660 nu         1 1LF      -0.924100
@<TRIPOS>BOND
     1     1    19 1   
     2     1    21 1   
     3     1    29 1   
     4     2    14 1   
     5     2    18 1   
     6     2    30 1   
     7     2    31 1   
     8     3    21 1   
     9     3    22 ar  
    10     3    24 ar  
    11     4    22 ar  
    12     4    23 ar  
    13     4    32 1   
    14     5    23 ar  
    15     5    24 ar  
    16     5    33 1   
    17     6    34 1   
    18     6    35 1   
    19     6    36 1   
    20     6    52 1   
    21     7     8 ar  
    22     7    13 ar  
    23     7    52 1   
    24     8     9 ar  
    25     9    10 1   
    26     9    11 ar  
    27    10    38 1   
    28    10    39 1   
    29    10    40 1   
    30    11    12 ar  
    31    12    13 ar  
    32    12    14 1   
    33    14    15 1   
    34    15    16 1   
    35    15    41 1   
    36    15    42 1   
    37    16    17 1   
    38    16    43 1   
    39    16    44 1   
    40    17    18 1   
    41    17    19 1   
    42    17    45 1   
    43    18    46 1   
    44    18    47 1   
    45    19    20 2   
    46    21    48 1   
    47    21    49 1   
    48    22    50 1   
    49    23    51 1   
    50    24    25 1   
    51    25    26 1   
    52    25    27 1   
    53    25    28 1   
    54    37    52 1   
@<TRIPOS>SUBSTRUCTURE
     1 1LF         1 TEMP              0 ****  ****    0 ROOT
