@<TRIPOS>MOLECULE
1LG
   50    53     1     0     0
SMALL
bcc


@<TRIPOS>ATOM
      1 C4          -5.8860     2.5370     0.5050 c6         1 1LG      -0.015100
      2 C5          -3.1370    -0.0290     0.1920 cc         1 1LG       0.102500
      3 C6          -2.8130     2.3080     0.8330 ch         1 1LG       0.261800
      4 C8          -7.0410    -0.1390    -0.3330 c6         1 1LG       0.001900
      5 C13         -1.3340    -1.6170    -0.0550 c          1 1LG       0.684700
      6 C17          0.7570    -2.8350     0.6560 ca         1 1LG       0.119400
      7 C22          2.9210    -1.9840     0.0830 ca         1 1LG       0.137400
      8 C28          5.5630     1.0580     0.0420 c6         1 1LG       0.195300
      9 C1          -5.0590     1.3080     0.2950 cd         1 1LG      -0.038300
     10 C2          -3.6380     1.2250     0.4570 cd         1 1LG      -0.117000
     11 C3          -5.5910     0.1190    -0.0810 cc         1 1LG      -0.102400
     12 S7          -4.3880    -1.1170    -0.2540 ss         1 1LG       0.034200
     13 C9          -7.2790     2.3620    -0.0960 c6         1 1LG      -0.072400
     14 N10         -1.8130    -0.3880     0.2780 ns         1 1LG      -0.437100
     15 N11         -2.1260     3.1860     1.1330 n1         1 1LG      -0.385800
     16 C12         -7.8720     1.0010     0.2570 c6         1 1LG      -0.071400
     17 C14          0.1470    -1.7460     0.0390 ca         1 1LG      -0.173600
     18 O15         -2.0600    -2.5170    -0.4180 o          1 1LG      -0.540100
     19 C16          0.9530    -0.7830    -0.5550 ca         1 1LG       0.003000
     20 C18          2.3340    -0.8880    -0.5430 ca         1 1LG      -0.286500
     21 C19          2.1370    -2.9520     0.6840 ca         1 1LG      -0.151000
     22 S21          3.2900     0.4080    -1.3230 sy         1 1LG       1.350200
     23 N23          4.1150     1.1060    -0.1140 n3         1 1LG      -0.806500
     24 O24          4.2380    -0.1840    -2.2460 o          1 1LG      -0.600300
     25 O25          2.3000     1.3460    -1.8270 o          1 1LG      -0.600300
     26 CL26         4.6240    -2.1760     0.1490 cl         1 1LG      -0.059400
     27 C27          3.4030     1.7620     0.9770 c6         1 1LG       0.195300
     28 C29          4.0150     3.1330     1.2050 c6         1 1LG       0.119900
     29 C30          6.0610     2.4680     0.3030 c6         1 1LG       0.119900
     30 O31          5.4060     3.0490     1.4090 os         1 1LG      -0.394600
     31 H41         -5.3900     3.4050     0.0620 hc         1 1LG       0.056700
     32 H42         -5.9600     2.7440     1.5770 hc         1 1LG       0.056700
     33 H81         -7.2240    -0.2230    -1.4090 hc         1 1LG       0.051700
     34 H82         -7.3460    -1.0920     0.1050 hc         1 1LG       0.051700
     35 H281         5.8250     0.4050     0.8790 h1         1 1LG       0.063700
     36 H282         6.0340     0.6630    -0.8550 h1         1 1LG       0.063700
     37 H91         -7.2220     2.4620    -1.1830 hc         1 1LG       0.045200
     38 H92         -7.9310     3.1620     0.2590 hc         1 1LG       0.045200
     39 H10         -1.1800     0.2850     0.6890 hn         1 1LG       0.339500
     40 H121        -8.8980     0.9260    -0.1070 hc         1 1LG       0.044200
     41 H122        -7.9130     0.8930     1.3440 hc         1 1LG       0.044200
     42 H16          0.4940     0.0560    -1.0600 ha         1 1LG       0.177000
     43 H19          2.6010    -3.7940     1.1770 ha         1 1LG       0.171000
     44 H271         2.3470     1.8800     0.7390 h1         1 1LG       0.063700
     45 H272         3.4750     1.1480     1.8800 h1         1 1LG       0.063700
     46 H291         3.5790     3.5850     2.0960 h1         1 1LG       0.059200
     47 H292         3.7840     3.7760     0.3460 h1         1 1LG       0.059200
     48 H301         7.1270     2.4410     0.5320 h1         1 1LG       0.059200
     49 H302         5.9200     3.0800    -0.5980 h1         1 1LG       0.059200
     50 CL20        -0.1690    -4.0420     1.4510 cl         1 1LG      -0.048400
@<TRIPOS>BOND
     1     1     9 1   
     2     1    13 1   
     3     1    31 1   
     4     1    32 1   
     5     2    10 2   
     6     2    12 1   
     7     2    14 1   
     8     3    10 1   
     9     3    15 3   
    10     4    11 1   
    11     4    16 1   
    12     4    33 1   
    13     4    34 1   
    14     5    14 1   
    15     5    17 1   
    16     5    18 2   
    17     6    17 ar  
    18     6    21 ar  
    19     6    50 1   
    20     7    20 ar  
    21     7    21 ar  
    22     7    26 1   
    23     8    23 1   
    24     8    29 1   
    25     8    35 1   
    26     8    36 1   
    27     9    10 1   
    28     9    11 2   
    29    11    12 1   
    30    13    16 1   
    31    13    37 1   
    32    13    38 1   
    33    14    39 1   
    34    16    40 1   
    35    16    41 1   
    36    17    19 ar  
    37    19    20 ar  
    38    19    42 1   
    39    20    22 1   
    40    21    43 1   
    41    22    23 1   
    42    22    24 2   
    43    22    25 2   
    44    23    27 1   
    45    27    28 1   
    46    27    44 1   
    47    27    45 1   
    48    28    30 1   
    49    28    46 1   
    50    28    47 1   
    51    29    30 1   
    52    29    48 1   
    53    29    49 1   
@<TRIPOS>SUBSTRUCTURE
     1 1LG         1 TEMP              0 ****  ****    0 ROOT
