@<TRIPOS>MOLECULE
1LG
   50    53     1     0     0
SMALL
No Charge or Current Charge


@<TRIPOS>ATOM
      1 C4          -5.6740     2.6780     0.1000 c6         1 1LG      -0.015100
      2 C5          -3.1660    -0.1520     0.1910 cc         1 1LG      -0.042400
      3 C6          -2.6320     2.2620     0.2990 ch         1 1LG       0.351000
      4 C8          -7.1610     0.0240    -0.0830 c6         1 1LG       0.001900
      5 C13         -1.2840    -1.8140     0.2920 c          1 1LG       0.617700
      6 C17          0.9420    -2.8920     0.9150 ca         1 1LG       0.211000
      7 C22          3.0550    -1.9720     0.1140 ca         1 1LG       0.229000
      8 C28          5.2940     1.7010    -0.5200 c6         1 1LG       0.195300
      9 C1          -4.9710     1.3290     0.1010 cd         1 1LG      -0.038300
     10 C2          -3.5500     1.1760     0.1990 cd         1 1LG      -0.117000
     11 C3          -5.6580     0.1400     0.0310 cc         1 1LG      -0.247300
     12 S7          -4.5640    -1.2330     0.0630 ss         1 1LG       0.324000
     13 C9          -7.1500     2.5610    -0.3600 c6         1 1LG      -0.072400
     14 N10         -1.8220    -0.5370     0.2760 ns         1 1LG      -0.370100
     15 N11         -1.8550     3.1300     0.3830 n1         1 1LG      -0.475000
     16 C12         -7.8490     1.3550     0.3100 c6         1 1LG      -0.071400
     17 C14          0.2230    -1.8750     0.2460 ca         1 1LG      -0.173600
     18 O15         -1.9820    -2.8170     0.2720 o          1 1LG      -0.540100
     19 C16          0.9470    -0.9120    -0.4970 ca         1 1LG       0.021000
     20 C18          2.3570    -0.9520    -0.5700 ca         1 1LG      -0.286500
     21 C19          2.3410    -2.9260     0.8480 ca         1 1LG      -0.133000
     22 S21          3.2030     0.3030    -1.5590 sy         1 1LG       1.208600
     23 N23          3.8380     1.3890    -0.3980 n3         1 1LG      -0.806500
     24 O24          4.3510    -0.3290    -2.2160 o          1 1LG      -0.529500
     25 O25          2.2170     1.0710    -2.3260 o          1 1LG      -0.529500
     26 Cl26         4.8160    -2.0980     0.1490 cl         1 1LG      -0.151000
     27 C27          3.4180     1.2170     1.0270 c6         1 1LG       0.195300
     28 C29          3.8840     2.4110     1.9090 c6         1 1LG       0.143100
     29 C30          5.7130     2.8760     0.4110 c6         1 1LG       0.143100
     30 O31          5.3120     2.6110     1.7770 os         1 1LG      -0.441000
     31 H41         -5.1510     3.3940    -0.5490 hc         1 1LG       0.056700
     32 H42         -5.6460     3.1030     1.1120 hc         1 1LG       0.056700
     33 H81         -7.4360    -0.2350    -1.1140 hc         1 1LG       0.051700
     34 H82         -7.5420    -0.7890     0.5500 hc         1 1LG       0.051700
     35 H281         5.9010     0.8190    -0.2660 h1         1 1LG       0.063700
     36 H282         5.5470     1.9790    -1.5540 h1         1 1LG       0.063700
     37 H91         -7.1870     2.4440    -1.4520 hc         1 1LG       0.045200
     38 H92         -7.6880     3.4900    -0.1270 hc         1 1LG       0.045200
     39 H10         -1.1300     0.1980     0.3440 hn         1 1LG       0.339500
     40 H121        -8.9090     1.3240     0.0230 hc         1 1LG       0.044200
     41 H122        -7.8240     1.4760     1.4020 hc         1 1LG       0.044200
     42 H16          0.4080    -0.1410    -1.0480 ha         1 1LG       0.159000
     43 H19          2.8810    -3.7010     1.3840 ha         1 1LG       0.153000
     44 H271         2.3240     1.1440     1.1070 h1         1 1LG       0.063700
     45 H272         3.8400     0.2950     1.4530 h1         1 1LG       0.063700
     46 H291         3.6430     2.2160     2.9620 h1         1 1LG       0.059200
     47 H292         3.3600     3.3280     1.6020 h1         1 1LG       0.059200
     48 H301         6.8020     3.0130     0.3740 h1         1 1LG       0.059200
     49 H302         5.2390     3.8080     0.0690 h1         1 1LG       0.059200
     50 Cl20         0.1550    -4.1100     1.9220 cl         1 1LG      -0.140000
@<TRIPOS>BOND
     1     1     9 1   
     2     1    13 1   
     3     1    31 1   
     4     1    32 1   
     5     2    10 2   
     6     2    12 1   
     7     2    14 1   
     8     3    10 1   
     9     3    15 3   
    10     4    11 1   
    11     4    16 1   
    12     4    33 1   
    13     4    34 1   
    14     5    14 1   
    15     5    17 1   
    16     5    18 2   
    17     6    17 ar  
    18     6    21 ar  
    19     6    50 1   
    20     7    20 ar  
    21     7    21 ar  
    22     7    26 1   
    23     8    23 1   
    24     8    29 1   
    25     8    35 1   
    26     8    36 1   
    27     9    10 1   
    28     9    11 2   
    29    11    12 1   
    30    13    16 1   
    31    13    37 1   
    32    13    38 1   
    33    14    39 1   
    34    16    40 1   
    35    16    41 1   
    36    17    19 ar  
    37    19    20 ar  
    38    19    42 1   
    39    20    22 1   
    40    21    43 1   
    41    22    23 1   
    42    22    24 2   
    43    22    25 2   
    44    23    27 1   
    45    27    28 1   
    46    27    44 1   
    47    27    45 1   
    48    28    30 1   
    49    28    46 1   
    50    28    47 1   
    51    29    30 1   
    52    29    48 1   
    53    29    49 1   
@<TRIPOS>SUBSTRUCTURE
     1 1LG         1 TEMP              0 ****  ****    0 ROOT
