@<TRIPOS>MOLECULE
1LH
   57    58     1     0     0
SMALL
No Charge or Current Charge


@<TRIPOS>ATOM
      1 C1           0.8170     4.3380     2.5150 c3         1 1LH      -0.114100
      2 C2           0.6020     2.8100     2.4460 c3         1 1LH      -0.103400
      3 C3           0.5880     2.2520     1.0090 c3         1 1LH       0.185600
      4 N5           1.9420     2.3890     0.3610 ny         1 1LH      -0.849000
      5 C8           2.0500     2.0270    -1.1040 c3         1 1LH       0.129300
      6 C10          1.4910     3.1620    -1.9750 c3         1 1LH      -0.128100
      7 C11          3.5140     1.6940    -1.4320 c3         1 1LH      -0.196400
      8 C12          3.9980     0.5270    -0.5800 c          1 1LH       0.607100
      9 O13          4.1270     0.6370     0.6310 o          1 1LH      -0.636100
     10 N14          4.2700    -0.6440    -1.2480 ns         1 1LH      -0.472900
     11 C15          4.7170    -1.8850    -0.6020 c3         1 1LH       0.079000
     12 C16          6.1110    -1.7370     0.0470 c3         1 1LH       0.067600
     13 N17          6.5910    -3.0210     0.7000 nz         1 1LH      -0.970000
     14 C21          0.2110     0.7810     0.9640 ca         1 1LH      -0.216300
     15 C22          0.9540    -0.1860     1.6760 ca         1 1LH      -0.070000
     16 C23          0.6120    -1.5450     1.5910 ca         1 1LH      -0.111000
     17 C24         -0.4740    -1.9540     0.8010 ca         1 1LH       0.148000
     18 Cl2         -0.8810    -3.6670     0.7160 cl         1 1LH      -0.100000
     19 C26         -1.2290    -1.0020     0.0910 ca         1 1LH       0.091100
     20 O27         -2.2910    -1.4160    -0.6890 os         1 1LH      -0.233200
     21 C28         -3.5790    -0.9720    -0.4890 ca         1 1LH       0.102100
     22 C29         -4.4760    -1.0010    -1.5680 ca         1 1LH      -0.148000
     23 C30         -5.8010    -0.5620    -1.3990 ca         1 1LH      -0.070500
     24 C31         -6.2310    -0.0980    -0.1430 ca         1 1LH      -0.113000
     25 C32         -5.3380    -0.0760     0.9430 ca         1 1LH      -0.070500
     26 C33         -4.0130    -0.5160     0.7740 ca         1 1LH      -0.148000
     27 C34         -0.8760     0.3630     0.1680 ca         1 1LH       0.191000
     28 F35         -1.5710     1.2830    -0.5430 f          1 1LH      -0.148000
     29 H3          -0.1320     2.8390     0.4290 hx         1 1LH       0.112700
     30 HN5          2.3090     3.3490     0.5110 hn         1 1LH       0.512000
     31 HN5A         2.6230     1.7950     0.8900 hn         1 1LH       0.512000
     32 H8           1.4480     1.1280    -1.2800 hx         1 1LH       0.116700
     33 HN17         5.9750    -3.3580     1.4580 hn         1 1LH       0.523333
     34 HN1A         6.6820    -3.8140     0.0450 hn         1 1LH       0.523333
     35 HN1B         7.5230    -2.9300     1.1370 hn         1 1LH       0.523333
     36 H1           1.8140     4.6170     2.1540 hc         1 1LH       0.055367
     37 H1A          0.0680     4.8640     1.9100 hc         1 1LH       0.055367
     38 H1B          0.7250     4.6880     3.5500 hc         1 1LH       0.055367
     39 H2           1.3740     2.3090     3.0420 hc         1 1LH       0.085200
     40 H2A         -0.3600     2.5730     2.9170 hc         1 1LH       0.085200
     41 H10          1.5440     2.8940    -3.0370 hc         1 1LH       0.082367
     42 H10A         0.4410     3.3560    -1.7310 hc         1 1LH       0.082367
     43 H10B         2.0570     4.0900    -1.8270 hc         1 1LH       0.082367
     44 H11          3.6040     1.4480    -2.4960 hc         1 1LH       0.106200
     45 H11A         4.1390     2.5670    -1.2120 hc         1 1LH       0.106200
     46 HN14         4.1320    -0.6410    -2.2530 hn         1 1LH       0.353500
     47 H15          3.9840    -2.1680     0.1650 h1         1 1LH       0.091200
     48 H15A         4.7460    -2.6850    -1.3540 h1         1 1LH       0.091200
     49 H16          6.8290    -1.4320    -0.7220 hx         1 1LH       0.117200
     50 H16A         6.0660    -0.9430     0.8010 hx         1 1LH       0.117200
     51 H22          1.8040     0.1070     2.2890 ha         1 1LH       0.123000
     52 H23          1.1900    -2.2850     2.1390 ha         1 1LH       0.151000
     53 H29         -4.1440    -1.3610    -2.5390 ha         1 1LH       0.122000
     54 H30         -6.4940    -0.5820    -2.2380 ha         1 1LH       0.128500
     55 H31         -7.2560     0.2420    -0.0100 ha         1 1LH       0.134000
     56 H32         -5.6740     0.2780     1.9160 ha         1 1LH       0.128500
     57 H33         -3.3360    -0.5040     1.6240 ha         1 1LH       0.122000
@<TRIPOS>BOND
     1     1     2 1   
     2     1    36 1   
     3     1    37 1   
     4     1    38 1   
     5     2     3 1   
     6     2    39 1   
     7     2    40 1   
     8     3     4 1   
     9     3    14 1   
    10     3    29 1   
    11     4     5 1   
    12     4    30 1   
    13     4    31 1   
    14     5     6 1   
    15     5     7 1   
    16     5    32 1   
    17     6    41 1   
    18     6    42 1   
    19     6    43 1   
    20     7     8 1   
    21     7    44 1   
    22     7    45 1   
    23     8     9 2   
    24     8    10 1   
    25    10    11 1   
    26    10    46 1   
    27    11    12 1   
    28    11    47 1   
    29    11    48 1   
    30    12    13 1   
    31    12    49 1   
    32    12    50 1   
    33    13    33 1   
    34    13    34 1   
    35    13    35 1   
    36    14    15 ar  
    37    14    27 ar  
    38    15    16 ar  
    39    15    51 1   
    40    16    17 ar  
    41    16    52 1   
    42    17    18 1   
    43    17    19 ar  
    44    19    20 1   
    45    19    27 ar  
    46    20    21 1   
    47    21    22 ar  
    48    21    26 ar  
    49    22    23 ar  
    50    22    53 1   
    51    23    24 ar  
    52    23    54 1   
    53    24    25 ar  
    54    24    55 1   
    55    25    26 ar  
    56    25    56 1   
    57    26    57 1   
    58    27    28 1   
@<TRIPOS>SUBSTRUCTURE
     1 1LH         1 TEMP              0 ****  ****    0 ROOT
