@<TRIPOS>MOLECULE
1LH
   57    58     1     0     0
SMALL
abcg2


@<TRIPOS>ATOM
      1 C1           1.1400     4.1410     2.5020 c3         1 1LH      -0.114100
      2 C2           0.6600     2.7000     2.4030 c3         1 1LH      -0.103400
      3 C3           0.5960     2.1670     0.9730 c3         1 1LH       0.185600
      4 N5           1.9710     2.1400     0.3750 ny         1 1LH      -0.849000
      5 C8           2.0660     1.7750    -1.0790 c3         1 1LH       0.129300
      6 C10          1.5690     2.9060    -1.9560 c3         1 1LH      -0.128100
      7 C11          3.5100     1.4030    -1.4000 c3         1 1LH      -0.196400
      8 C12          4.0130     0.2330    -0.5830 c          1 1LH       0.607100
      9 O13          3.7330     0.1240     0.6130 o          1 1LH      -0.636100
     10 N14          4.7730    -0.6530    -1.2270 ns         1 1LH      -0.472900
     11 C15          5.3690    -1.7990    -0.5870 c3         1 1LH       0.079000
     12 C16          6.7040    -1.4290     0.0460 c3         1 1LH       0.067600
     13 N17          7.3240    -2.6200     0.6760 nz         1 1LH      -0.970000
     14 C21         -0.0110     0.7900     0.8970 ca         1 1LH      -0.216300
     15 C22          0.4600    -0.2600     1.6830 ca         1 1LH      -0.070000
     16 C23         -0.1120    -1.5180     1.6290 ca         1 1LH      -0.111000
     17 C24         -1.1820    -1.7460     0.7780 ca         1 1LH       0.148000
     18 CL2         -1.9270    -3.2910     0.6970 cl         1 1LH      -0.100000
     19 C26         -1.6700    -0.7290    -0.0290 ca         1 1LH       0.091100
     20 O27         -2.6660    -0.9480    -0.9180 os         1 1LH      -0.233200
     21 C28         -3.9610    -0.6740    -0.5540 ca         1 1LH       0.102100
     22 C29         -4.9160    -0.8520    -1.5470 ca         1 1LH      -0.148000
     23 C30         -6.2490    -0.6050    -1.2590 ca         1 1LH      -0.070500
     24 C31         -6.6320    -0.1820     0.0090 ca         1 1LH      -0.113000
     25 C32         -5.6660    -0.0100     0.9880 ca         1 1LH      -0.070500
     26 C33         -4.3240    -0.2550     0.7170 ca         1 1LH      -0.148000
     27 C34         -1.0760     0.5240     0.0540 ca         1 1LH       0.191000
     28 F35         -1.5720     1.4870    -0.7250 f          1 1LH      -0.148000
     29 H3           0.0170     2.8670     0.3730 hx         1 1LH       0.112700
     30 HN5          2.4090     3.0520     0.5180 hn         1 1LH       0.512000
     31 HN5A         2.5740     1.4530     0.8730 hn         1 1LH       0.512000
     32 H8           1.4360     0.8940    -1.2080 hx         1 1LH       0.116700
     33 HN17         6.7390    -3.0140     1.4140 hn         1 1LH       0.523333
     34 HN1A         7.5040    -3.3630     0.0020 hn         1 1LH       0.523333
     35 HN1B         8.2200    -2.3880     1.1030 hn         1 1LH       0.523333
     36 H1           2.1960     4.2600     2.2540 hc         1 1LH       0.055367
     37 H1A          0.5620     4.8010     1.8550 hc         1 1LH       0.055367
     38 H1B          1.0230     4.4980     3.5250 hc         1 1LH       0.055367
     39 H2           1.2840     2.0500     3.0210 hc         1 1LH       0.085200
     40 H2A         -0.3530     2.6270     2.8000 hc         1 1LH       0.085200
     41 H10          1.6170     2.5930    -2.9980 hc         1 1LH       0.082367
     42 H10A         0.5350     3.1730    -1.7470 hc         1 1LH       0.082367
     43 H10B         2.1900     3.7960    -1.8450 hc         1 1LH       0.082367
     44 H11          3.5710     1.1890    -2.4670 hc         1 1LH       0.106200
     45 H11A         4.1710     2.2570    -1.2180 hc         1 1LH       0.106200
     46 HN14         4.9760    -0.5020    -2.2020 hn         1 1LH       0.353500
     47 H15          4.6880    -2.1980     0.1640 h1         1 1LH       0.091200
     48 H15A         5.5110    -2.5690    -1.3450 h1         1 1LH       0.091200
     49 H16          7.4040    -1.0560    -0.6970 hx         1 1LH       0.117200
     50 H16A         6.5810    -0.6810     0.8260 hx         1 1LH       0.117200
     51 H22          1.2850    -0.1040     2.3650 ha         1 1LH       0.123000
     52 H23          0.2670    -2.3150     2.2520 ha         1 1LH       0.151000
     53 H29         -4.6150    -1.1800    -2.5340 ha         1 1LH       0.122000
     54 H30         -6.9920    -0.7440    -2.0330 ha         1 1LH       0.128500
     55 H31         -7.6730     0.0090     0.2300 ha         1 1LH       0.134000
     56 H32         -5.9500     0.3170     1.9790 ha         1 1LH       0.128500
     57 H33         -3.5910    -0.1200     1.5020 ha         1 1LH       0.122000
@<TRIPOS>BOND
     1     1     2 1   
     2     1    36 1   
     3     1    37 1   
     4     1    38 1   
     5     2     3 1   
     6     2    39 1   
     7     2    40 1   
     8     3     4 1   
     9     3    14 1   
    10     3    29 1   
    11     4     5 1   
    12     4    30 1   
    13     4    31 1   
    14     5     6 1   
    15     5     7 1   
    16     5    32 1   
    17     6    41 1   
    18     6    42 1   
    19     6    43 1   
    20     7     8 1   
    21     7    44 1   
    22     7    45 1   
    23     8     9 2   
    24     8    10 1   
    25    10    11 1   
    26    10    46 1   
    27    11    12 1   
    28    11    47 1   
    29    11    48 1   
    30    12    13 1   
    31    12    49 1   
    32    12    50 1   
    33    13    33 1   
    34    13    34 1   
    35    13    35 1   
    36    14    15 ar  
    37    14    27 ar  
    38    15    16 ar  
    39    15    51 1   
    40    16    17 ar  
    41    16    52 1   
    42    17    18 1   
    43    17    19 ar  
    44    19    20 1   
    45    19    27 ar  
    46    20    21 1   
    47    21    22 ar  
    48    21    26 ar  
    49    22    23 ar  
    50    22    53 1   
    51    23    24 ar  
    52    23    54 1   
    53    24    25 ar  
    54    24    55 1   
    55    25    26 ar  
    56    25    56 1   
    57    26    57 1   
    58    27    28 1   
@<TRIPOS>SUBSTRUCTURE
     1 1LH         1 TEMP              0 ****  ****    0 ROOT
