@<TRIPOS>MOLECULE
1LI
   72    74     1     0     0
SMALL
No Charge or Current Charge


@<TRIPOS>ATOM
      1 C4           2.6020     2.5710    -0.3170 c          1 1LI       0.601100
      2 C7           0.4360     0.6320     1.0120 c3         1 1LI       0.147300
      3 C8           2.8970    -0.1490     1.3120 c3         1 1LI      -0.051100
      4 C10          5.3010     0.4480     0.7140 ca         1 1LI      -0.172500
      5 C13          5.6090    -1.9300    -0.7340 ca         1 1LI       0.198500
      6 C17         -0.6670     1.0720     0.0060 c3         1 1LI       0.143800
      7 C20         -3.1860     1.4700    -0.0820 c6         1 1LI       0.249500
      8 C21         -3.0790     2.6370    -1.1290 c6         1 1LI      -0.062400
      9 C22         -2.9200     4.0350    -0.4730 c6         1 1LI      -0.067900
     10 C24         -3.4430     0.0740    -0.7280 ca         1 1LI      -0.105300
     11 C26         -3.8760    -2.5080    -1.8140 ca         1 1LI      -0.107000
     12 C28         -3.5620    -1.0640     0.1060 ca         1 1LI      -0.116000
     13 F16          5.7560    -3.0770    -1.4310 f          1 1LI      -0.173500
     14 C14          4.3890    -1.6520    -0.0980 ca         1 1LI      -0.172500
     15 C12          6.6760    -1.0260    -0.6510 ca         1 1LI      -0.203000
     16 C11          6.5170     0.1620     0.0730 ca         1 1LI       0.198500
     17 F15          7.5400     1.0400     0.1550 f          1 1LI      -0.173500
     18 C9           4.2260    -0.4580     0.6310 ca         1 1LI      -0.021300
     19 C31          1.7790     0.2480     0.3090 c3         1 1LI       0.100700
     20 N6           2.2510     1.2770    -0.6360 ns         1 1LI      -0.506900
     21 O5           2.5200     3.0250     0.8140 o          1 1LI      -0.606100
     22 C3           3.1030     3.3960    -1.4930 c3         1 1LI      -0.181100
     23 O18         -0.0510    -0.4800     1.8000 oh         1 1LI      -0.652000
     24 N19         -1.9360     1.3730     0.7120 n7         1 1LI      -0.872400
     25 C34         -4.0970     4.3310     0.4850 c6         1 1LI      -0.070400
     26 C33         -4.2390     3.2150     1.5460 c6         1 1LI      -0.067900
     27 C32         -4.3680     1.8140     0.8860 c6         1 1LI      -0.062400
     28 C23         -3.5370    -0.1160    -2.1270 ca         1 1LI      -0.104000
     29 C27         -3.7800    -2.3630    -0.4110 ca         1 1LI      -0.065300
     30 C25         -3.7550    -1.3950    -2.6580 ca         1 1LI      -0.112000
     31 C29         -3.8990    -3.5640     0.5680 c3         1 1LI       0.000300
     32 C30         -4.1390    -4.9190    -0.1570 c3         1 1LI      -0.082433
     33 C2          -2.5880    -3.6890     1.3900 c3         1 1LI      -0.082433
     34 C1          -5.0920    -3.3230     1.5330 c3         1 1LI      -0.082433
     35 H7           0.6320     1.4910     1.6700 h1         1 1LI       0.116700
     36 H8           2.5720    -1.0250     1.8860 hc         1 1LI       0.077700
     37 H8A          3.0260     0.6550     2.0470 hc         1 1LI       0.077700
     38 H10          5.1960     1.3780     1.2680 ha         1 1LI       0.140000
     39 H17         -0.3260     1.9550    -0.5500 h1         1 1LI       0.034700
     40 H17A        -0.8080     0.2600    -0.7200 h1         1 1LI       0.034700
     41 H21         -2.2440     2.4660    -1.8210 hc         1 1LI       0.038700
     42 H21A        -3.9880     2.6550    -1.7470 hc         1 1LI       0.038700
     43 H22         -1.9690     4.0900     0.0740 hc         1 1LI       0.046200
     44 H22A        -2.8740     4.8070    -1.2520 hc         1 1LI       0.046200
     45 H26         -4.0430    -3.4750    -2.2780 ha         1 1LI       0.114000
     46 H28         -3.4770    -0.9350     1.1800 ha         1 1LI       0.105000
     47 H14          3.5720    -2.3650    -0.1740 ha         1 1LI       0.140000
     48 H12          7.6180    -1.2440    -1.1450 ha         1 1LI       0.150000
     49 H31          1.5730    -0.6400    -0.3030 h1         1 1LI       0.039700
     50 HN6          2.3730     1.0090    -1.6060 hn         1 1LI       0.315500
     51 H3           2.3490     3.3790    -2.2880 hc         1 1LI       0.061367
     52 H3A          3.3680     4.4200    -1.2070 hc         1 1LI       0.061367
     53 H3B          3.9470     2.8750    -1.9590 hc         1 1LI       0.061367
     54 HO18        -0.2960    -1.1930     1.1720 ho         1 1LI       0.430000
     55 HN19        -2.0670     0.6240     1.3980 hn         1 1LI       0.425000
     56 H34         -3.9430     5.3000     0.9790 hc         1 1LI       0.035200
     57 H34A        -5.0300     4.4170    -0.0890 hc         1 1LI       0.035200
     58 H33         -3.3710     3.2340     2.2200 hc         1 1LI       0.046200
     59 H33A        -5.1190     3.4120     2.1730 hc         1 1LI       0.046200
     60 H32         -5.3140     1.7680     0.3290 hc         1 1LI       0.038700
     61 H32A        -4.4520     1.0620     1.6800 hc         1 1LI       0.038700
     62 H23         -3.4430     0.7120    -2.8230 ha         1 1LI       0.114000
     63 H25         -3.8270    -1.5250    -3.7350 ha         1 1LI       0.111000
     64 H30         -3.3100    -5.1570    -0.8340 hc         1 1LI       0.035144
     65 H30A        -4.2180    -5.7400     0.5660 hc         1 1LI       0.035144
     66 H30B        -5.0700    -4.8990    -0.7360 hc         1 1LI       0.035144
     67 H2          -2.4090    -2.8010     2.0070 hc         1 1LI       0.035144
     68 H2A         -2.6270    -4.5540     2.0630 hc         1 1LI       0.035144
     69 H2B         -1.7250    -3.8170     0.7240 hc         1 1LI       0.035144
     70 H1          -6.0240    -3.1930     0.9700 hc         1 1LI       0.035144
     71 H1A         -5.2240    -4.1730     2.2140 hc         1 1LI       0.035144
     72 H1B         -4.9420    -2.4280     2.1480 hc         1 1LI       0.035144
@<TRIPOS>BOND
     1     1    20 1   
     2     1    21 2   
     3     1    22 1   
     4     2     6 1   
     5     2    19 1   
     6     2    23 1   
     7     2    35 1   
     8     3    18 1   
     9     3    19 1   
    10     3    36 1   
    11     3    37 1   
    12     4    16 ar  
    13     4    18 ar  
    14     4    38 1   
    15     5    13 1   
    16     5    14 ar  
    17     5    15 ar  
    18     6    24 1   
    19     6    39 1   
    20     6    40 1   
    21     7     8 1   
    22     7    10 1   
    23     7    24 1   
    24     7    27 1   
    25     8     9 1   
    26     8    41 1   
    27     8    42 1   
    28     9    25 1   
    29     9    43 1   
    30     9    44 1   
    31    10    12 ar  
    32    10    28 ar  
    33    11    29 ar  
    34    11    30 ar  
    35    11    45 1   
    36    12    29 ar  
    37    12    46 1   
    38    14    18 ar  
    39    14    47 1   
    40    15    16 ar  
    41    15    48 1   
    42    16    17 1   
    43    19    20 1   
    44    19    49 1   
    45    20    50 1   
    46    22    51 1   
    47    22    52 1   
    48    22    53 1   
    49    23    54 1   
    50    24    55 1   
    51    25    26 1   
    52    25    56 1   
    53    25    57 1   
    54    26    27 1   
    55    26    58 1   
    56    26    59 1   
    57    27    60 1   
    58    27    61 1   
    59    28    30 ar  
    60    28    62 1   
    61    29    31 1   
    62    30    63 1   
    63    31    32 1   
    64    31    33 1   
    65    31    34 1   
    66    32    64 1   
    67    32    65 1   
    68    32    66 1   
    69    33    67 1   
    70    33    68 1   
    71    33    69 1   
    72    34    70 1   
    73    34    71 1   
    74    34    72 1   
@<TRIPOS>SUBSTRUCTURE
     1 1LI         1 TEMP              0 ****  ****    0 ROOT
