@<TRIPOS>MOLECULE
1LI
   72    74     1     0     0
SMALL
abcg2


@<TRIPOS>ATOM
      1 C4           2.3410     2.2310    -0.8070 c          1 1LI       0.601100
      2 C7           0.3880     0.7990     1.2060 c3         1 1LI       0.147300
      3 C8           2.8590     0.2570     1.5530 c3         1 1LI      -0.051100
      4 C10          5.0870     0.6330     0.4590 ca         1 1LI      -0.172500
      5 C13          5.4340    -2.0680     0.0830 ca         1 1LI       0.198500
      6 C17         -0.7760     0.8060     0.2230 c3         1 1LI       0.143800
      7 C20         -3.1460     1.5040     0.0240 c6         1 1LI       0.249500
      8 C21         -2.9390     2.6990    -0.9200 c6         1 1LI      -0.062400
      9 C22         -2.6870     3.9980    -0.1650 c6         1 1LI      -0.067900
     10 C24         -3.4890     0.2180    -0.7360 ca         1 1LI      -0.105300
     11 C26         -4.0450    -2.2180    -2.0030 ca         1 1LI      -0.107000
     12 C28         -3.4680    -0.9900    -0.0430 ca         1 1LI      -0.116000
     13 F16          5.6030    -3.3860    -0.0950 f          1 1LI      -0.173500
     14 C14          4.2910    -1.6230     0.7160 ca         1 1LI      -0.172500
     15 C12          6.4200    -1.2150    -0.3760 ca         1 1LI      -0.203000
     16 C11          6.2120     0.1350    -0.1690 ca         1 1LI       0.198500
     17 F15          7.1450     0.9950    -0.5990 f          1 1LI      -0.173500
     18 C9           4.1140    -0.2550     0.9080 ca         1 1LI      -0.021300
     19 C31          1.6810     0.2650     0.5620 c3         1 1LI       0.100700
     20 N6           2.0050     0.9360    -0.6820 ns         1 1LI      -0.506900
     21 O5           2.3580     3.0150     0.1340 o          1 1LI      -0.606100
     22 C3           2.7120     2.6670    -2.2020 c3         1 1LI      -0.181100
     23 O18          0.0730     0.0440     2.3610 oh         1 1LI      -0.652000
     24 N19         -1.9580     1.3400     0.8580 n7         1 1LI      -0.872400
     25 C34         -3.8380     4.3110     0.7850 c6         1 1LI      -0.070400
     26 C33         -4.1050     3.1460     1.7310 c6         1 1LI      -0.067900
     27 C32         -4.3180     1.8440     0.9650 c6         1 1LI      -0.062400
     28 C23         -3.8060     0.1820    -2.0910 ca         1 1LI      -0.104000
     29 C27         -3.7290    -2.2190    -0.6460 ca         1 1LI      -0.065300
     30 C25         -4.0860    -1.0260    -2.7130 ca         1 1LI      -0.112000
     31 C29         -3.6430    -3.4950     0.1860 c3         1 1LI       0.000300
     32 C30         -3.8670    -4.7510    -0.6560 c3         1 1LI      -0.082433
     33 C2          -2.2530    -3.5890     0.8320 c3         1 1LI      -0.082433
     34 C1          -4.7140    -3.4570     1.2850 c3         1 1LI      -0.082433
     35 H7           0.5490     1.8190     1.5620 h1         1 1LI       0.116700
     36 H8           2.5910    -0.3820     2.3950 hc         1 1LI       0.077700
     37 H8A          3.0240     1.2590     1.9480 hc         1 1LI       0.077700
     38 H10          4.9700     1.6990     0.6010 ha         1 1LI       0.140000
     39 H17         -0.5140     1.4340    -0.6300 h1         1 1LI       0.034700
     40 H17A        -0.9130    -0.2130    -0.1800 h1         1 1LI       0.034700
     41 H21         -2.1250     2.5050    -1.6240 hc         1 1LI       0.038700
     42 H21A        -3.8370     2.8240    -1.5320 hc         1 1LI       0.038700
     43 H22         -1.7510     3.9260     0.3940 hc         1 1LI       0.046200
     44 H22A        -2.5640     4.8130    -0.8840 hc         1 1LI       0.046200
     45 H26         -4.2550    -3.1420    -2.5240 ha         1 1LI       0.114000
     46 H28         -3.2130    -0.9760     1.0110 ha         1 1LI       0.105000
     47 H14          3.5490    -2.3330     1.0600 ha         1 1LI       0.140000
     48 H12          7.3100    -1.5860    -0.8660 ha         1 1LI       0.150000
     49 H31          1.4910    -0.7730     0.2710 h1         1 1LI       0.039700
     50 HN6          2.0370     0.3620    -1.5080 hn         1 1LI       0.315500
     51 H3           2.6130     1.8830    -2.9490 hc         1 1LI       0.061367
     52 H3A          2.0880     3.5100    -2.4990 hc         1 1LI       0.061367
     53 H3B          3.7460     3.0140    -2.2040 hc         1 1LI       0.061367
     54 HO18        -0.0730    -0.8730     2.1020 ho         1 1LI       0.430000
     55 HN19        -2.1860     0.7900     1.6760 hn         1 1LI       0.425000
     56 H34         -3.6270     5.2200     1.3540 hc         1 1LI       0.035200
     57 H34A        -4.7420     4.5140     0.2000 hc         1 1LI       0.035200
     58 H33         -3.2650     3.0330     2.4200 hc         1 1LI       0.046200
     59 H33A        -4.9870     3.3500     2.3440 hc         1 1LI       0.046200
     60 H32         -5.2320     1.9110     0.3660 hc         1 1LI       0.038700
     61 H32A        -4.4750     1.0190     1.6690 hc         1 1LI       0.038700
     62 H23         -3.8340     1.0880    -2.6810 ha         1 1LI       0.114000
     63 H25         -4.3280    -1.0410    -3.7680 ha         1 1LI       0.111000
     64 H30         -3.1180    -4.8560    -1.4440 hc         1 1LI       0.035144
     65 H30A        -3.8010    -5.6360    -0.0200 hc         1 1LI       0.035144
     66 H30B        -4.8540    -4.7620    -1.1220 hc         1 1LI       0.035144
     67 H2          -2.0680    -2.7680     1.5270 hc         1 1LI       0.035144
     68 H2A         -2.1610    -4.5170     1.4000 hc         1 1LI       0.035144
     69 H2B         -1.4630    -3.5740     0.0800 hc         1 1LI       0.035144
     70 H1          -5.7160    -3.4110     0.8540 hc         1 1LI       0.035144
     71 H1A         -4.6550    -4.3550     1.9030 hc         1 1LI       0.035144
     72 H1B         -4.5950    -2.5950     1.9430 hc         1 1LI       0.035144
@<TRIPOS>BOND
     1     1    20 1   
     2     1    21 2   
     3     1    22 1   
     4     2     6 1   
     5     2    19 1   
     6     2    23 1   
     7     2    35 1   
     8     3    18 1   
     9     3    19 1   
    10     3    36 1   
    11     3    37 1   
    12     4    16 ar  
    13     4    18 ar  
    14     4    38 1   
    15     5    13 1   
    16     5    14 ar  
    17     5    15 ar  
    18     6    24 1   
    19     6    39 1   
    20     6    40 1   
    21     7     8 1   
    22     7    10 1   
    23     7    24 1   
    24     7    27 1   
    25     8     9 1   
    26     8    41 1   
    27     8    42 1   
    28     9    25 1   
    29     9    43 1   
    30     9    44 1   
    31    10    12 ar  
    32    10    28 ar  
    33    11    29 ar  
    34    11    30 ar  
    35    11    45 1   
    36    12    29 ar  
    37    12    46 1   
    38    14    18 ar  
    39    14    47 1   
    40    15    16 ar  
    41    15    48 1   
    42    16    17 1   
    43    19    20 1   
    44    19    49 1   
    45    20    50 1   
    46    22    51 1   
    47    22    52 1   
    48    22    53 1   
    49    23    54 1   
    50    24    55 1   
    51    25    26 1   
    52    25    56 1   
    53    25    57 1   
    54    26    27 1   
    55    26    58 1   
    56    26    59 1   
    57    27    60 1   
    58    27    61 1   
    59    28    30 ar  
    60    28    62 1   
    61    29    31 1   
    62    30    63 1   
    63    31    32 1   
    64    31    33 1   
    65    31    34 1   
    66    32    64 1   
    67    32    65 1   
    68    32    66 1   
    69    33    67 1   
    70    33    68 1   
    71    33    69 1   
    72    34    70 1   
    73    34    71 1   
    74    34    72 1   
@<TRIPOS>SUBSTRUCTURE
     1 1LI         1 TEMP              0 ****  ****    0 ROOT
