@<TRIPOS>MOLECULE
1LJ
   45    47     1     0     0
SMALL
bcc


@<TRIPOS>ATOM
      1 C4          -5.2940     0.5220    -0.2130 ca         1 1LJ      -0.259500
      2 C5          -5.4720     1.3020    -1.3480 ca         1 1LJ      -0.033500
      3 C6          -5.9170     2.6070    -1.2020 ca         1 1LJ      -0.148000
      4 C10         -2.9540    -0.9990    -0.3330 ca         1 1LJ      -0.310500
      5 C13         -0.1790    -0.7520    -0.2240 ca         1 1LJ       0.150600
      6 C15         -2.2300    -0.8590    -1.5110 ca         1 1LJ       0.002500
      7 C17          2.0980    -0.5640     0.7640 c          1 1LJ       0.794100
      8 C20          4.4890    -0.5160     1.2910 c3         1 1LJ       0.175300
      9 C21          5.7210     0.0500     0.6530 ca         1 1LJ      -0.296600
     10 C22          5.8160     1.3960     0.2840 ca         1 1LJ      -0.033000
     11 C24          8.0260     0.9740    -0.5290 ca         1 1LJ       0.670200
     12 C26          6.8230    -0.7410     0.3830 ca         1 1LJ       0.465200
     13 C1          -6.1790     3.1180     0.0620 ca         1 1LJ      -0.077000
     14 C2          -6.0000     2.3250     1.1880 ca         1 1LJ      -0.148000
     15 C3          -5.5570     1.0180     1.0570 ca         1 1LJ      -0.033500
     16 S7          -4.7090    -1.1450    -0.3890 sy         1 1LJ       1.172600
     17 O8          -5.1420    -1.8960     0.7860 o          1 1LJ      -0.601800
     18 O9          -5.0860    -1.6130    -1.7200 o          1 1LJ      -0.601800
     19 C11         -2.2990    -1.0220     0.8900 ca         1 1LJ       0.002500
     20 C12         -0.9230    -0.8970     0.9540 ca         1 1LJ      -0.202500
     21 C14         -0.8580    -0.7370    -1.4520 ca         1 1LJ      -0.202500
     22 N16          1.1960    -0.6370    -0.2790 ns         1 1LJ      -0.489100
     23 O18          1.7680    -0.5290     1.9390 o          1 1LJ      -0.613100
     24 N19          3.3840    -0.5110     0.3520 ns         1 1LJ      -0.586900
     25 C23          6.9620     1.8700    -0.3050 ca         1 1LJ      -0.316300
     26 N25          7.9440    -0.3080    -0.1880 nb         1 1LJ      -0.745000
     27 N27          9.2010     1.4040    -1.0690 nv         1 1LJ      -0.940500
     28 H1          -5.2730     0.9060    -2.3350 ha         1 1LJ       0.152500
     29 H2          -6.0620     3.2240    -2.0800 ha         1 1LJ       0.136500
     30 H3          -2.7210    -0.8480    -2.4740 ha         1 1LJ       0.152500
     31 H4           4.6950    -1.5280     1.6530 h1         1 1LJ       0.061700
     32 H5           4.2030     0.0780     2.1600 h1         1 1LJ       0.061700
     33 H6           4.9860     2.0700     0.4610 ha         1 1LJ       0.141000
     34 H7           6.8020    -1.7960     0.6420 h4         1 1LJ       0.017100
     35 H8          -6.5270     4.1370     0.1710 ha         1 1LJ       0.133000
     36 H9          -6.2090     2.7220     2.1720 ha         1 1LJ       0.136500
     37 H10         -5.4260     0.4000     1.9350 ha         1 1LJ       0.152500
     38 H11         -2.8510    -1.1450     1.8130 ha         1 1LJ       0.152500
     39 H12         -0.4400    -0.9190     1.9160 ha         1 1LJ       0.152000
     40 H13         -0.2980    -0.6320    -2.3730 ha         1 1LJ       0.152000
     41 H14          1.5760    -0.5810    -1.2110 hn         1 1LJ       0.314500
     42 H15          3.6070    -0.7190    -0.6090 hn         1 1LJ       0.310500
     43 H16          7.0530     2.9100    -0.5920 ha         1 1LJ       0.142000
     44 H17          9.1890     2.2560    -1.6030 hn         1 1LJ       0.418800
     45 H18          9.8090     0.6920    -1.4390 hn         1 1LJ       0.418800
@<TRIPOS>BOND
     1     1     2 ar  
     2     1    15 ar  
     3     1    16 1   
     4     2     3 ar  
     5     2    28 1   
     6     3    13 ar  
     7     3    29 1   
     8     4     6 ar  
     9     4    16 1   
    10     4    19 ar  
    11     5    20 ar  
    12     5    21 ar  
    13     5    22 1   
    14     6    21 ar  
    15     6    30 1   
    16     7    22 1   
    17     7    23 2   
    18     7    24 1   
    19     8     9 1   
    20     8    24 1   
    21     8    31 1   
    22     8    32 1   
    23     9    10 ar  
    24     9    12 ar  
    25    10    25 ar  
    26    10    33 1   
    27    11    25 ar  
    28    11    26 ar  
    29    11    27 1   
    30    12    26 ar  
    31    12    34 1   
    32    13    14 ar  
    33    13    35 1   
    34    14    15 ar  
    35    14    36 1   
    36    15    37 1   
    37    16    17 2   
    38    16    18 2   
    39    19    20 ar  
    40    19    38 1   
    41    20    39 1   
    42    21    40 1   
    43    22    41 1   
    44    24    42 1   
    45    25    43 1   
    46    27    44 1   
    47    27    45 1   
@<TRIPOS>SUBSTRUCTURE
     1 1LJ         1 TEMP              0 ****  ****    0 ROOT
