@<TRIPOS>MOLECULE
1LJ
   45    47     1     0     0
SMALL
No Charge or Current Charge


@<TRIPOS>ATOM
      1 C4          -5.4010     0.4030    -0.3030 ca         1 1LJ      -0.259500
      2 C5          -5.5660     1.2910    -1.3870 ca         1 1LJ      -0.015500
      3 C6          -6.0620     2.5880    -1.1650 ca         1 1LJ      -0.130000
      4 C10         -2.9690    -1.0220    -0.4130 ca         1 1LJ      -0.310500
      5 C13         -0.1810    -0.6220    -0.1430 ca         1 1LJ       0.058000
      6 C15         -2.1910    -0.6880    -1.5370 ca         1 1LJ       0.020500
      7 C17          2.1300    -0.4680     0.9570 c          1 1LJ       0.660100
      8 C20          4.5630    -0.1650     1.4470 c3         1 1LJ       0.175300
      9 C21          5.8250     0.2010     0.6900 ca         1 1LJ      -0.231300
     10 C22          6.0650     1.5290     0.2910 ca         1 1LJ      -0.015000
     11 C24          8.1290     0.7390    -0.6530 ca         1 1LJ       0.604900
     12 C26          6.7830    -0.7850     0.3780 ca         1 1LJ       0.399900
     13 C1          -6.3920     3.0050     0.1350 ca         1 1LJ      -0.059000
     14 C2          -6.2240     2.1250     1.2170 ca         1 1LJ      -0.130000
     15 C3          -5.7290     0.8270     1.0030 ca         1 1LJ      -0.015500
     16 S7          -4.7490    -1.2570    -0.5810 sy         1 1LJ       1.031000
     17 O8          -5.1950    -2.1100     0.5300 o          1 1LJ      -0.531000
     18 O9          -5.0230    -1.6220    -1.9780 o          1 1LJ      -0.531000
     19 C11         -2.3550    -1.1490     0.8480 ca         1 1LJ       0.020500
     20 C12         -0.9700    -0.9510     0.9800 ca         1 1LJ      -0.184500
     21 C14         -0.8070    -0.4920    -1.3960 ca         1 1LJ      -0.184500
     22 N16          1.2220    -0.4070    -0.0860 ns         1 1LJ      -0.163000
     23 O18          1.8630    -0.7450     2.1170 o          1 1LJ      -0.613100
     24 N19          3.4110    -0.1780     0.5550 ns         1 1LJ      -0.519900
     25 C23          7.2540     1.7980    -0.4030 ca         1 1LJ      -0.233000
     26 N25          7.9280    -0.5190    -0.2910 nb         1 1LJ      -0.745000
     27 N27          9.2830     0.8760    -1.3090 nv         1 1LJ      -1.050900
     28 H1          -5.3100     0.9840    -2.4000 ha         1 1LJ       0.134500
     29 H2          -6.1890     3.2700    -2.0020 ha         1 1LJ       0.118500
     30 H3          -2.6500    -0.5770    -2.5180 ha         1 1LJ       0.134500
     31 H4           4.6710    -1.1570     1.9080 h1         1 1LJ       0.061700
     32 H5           4.3880     0.5640     2.2500 h1         1 1LJ       0.061700
     33 H6           5.3540     2.3230     0.5110 ha         1 1LJ       0.123000
     34 H7           6.6280    -1.8230     0.6730 h4         1 1LJ       0.017100
     35 H8          -6.7760     4.0090     0.3050 ha         1 1LJ       0.115000
     36 H9          -6.4770     2.4480     2.2250 ha         1 1LJ       0.118500
     37 H10         -5.6000     0.1570     1.8520 ha         1 1LJ       0.134500
     38 H11         -2.9450    -1.3970     1.7300 ha         1 1LJ       0.134500
     39 H12         -0.5320    -1.0570     1.9660 ha         1 1LJ       0.134000
     40 H13         -0.2180    -0.2360    -2.2740 ha         1 1LJ       0.134000
     41 H14          1.6290    -0.1640    -0.9780 hn         1 1LJ       0.148000
     42 H15          3.5560     0.0430    -0.4220 hn         1 1LJ       0.310500
     43 H16          7.4890     2.8040    -0.7340 ha         1 1LJ       0.124000
     44 H17          9.3800     1.6820    -1.9170 hn         1 1LJ       0.474000
     45 H18          9.7030     0.0120    -1.6290 hn         1 1LJ       0.474000
@<TRIPOS>BOND
     1     1     2 ar  
     2     1    15 ar  
     3     1    16 1   
     4     2     3 ar  
     5     2    28 1   
     6     3    13 ar  
     7     3    29 1   
     8     4     6 ar  
     9     4    16 1   
    10     4    19 ar  
    11     5    20 ar  
    12     5    21 ar  
    13     5    22 1   
    14     6    21 ar  
    15     6    30 1   
    16     7    22 1   
    17     7    23 2   
    18     7    24 1   
    19     8     9 1   
    20     8    24 1   
    21     8    31 1   
    22     8    32 1   
    23     9    10 ar  
    24     9    12 ar  
    25    10    25 ar  
    26    10    33 1   
    27    11    25 ar  
    28    11    26 ar  
    29    11    27 1   
    30    12    26 ar  
    31    12    34 1   
    32    13    14 ar  
    33    13    35 1   
    34    14    15 ar  
    35    14    36 1   
    36    15    37 1   
    37    16    17 2   
    38    16    18 2   
    39    19    20 ar  
    40    19    38 1   
    41    20    39 1   
    42    21    40 1   
    43    22    41 1   
    44    24    42 1   
    45    25    43 1   
    46    27    44 1   
    47    27    45 1   
@<TRIPOS>SUBSTRUCTURE
     1 1LJ         1 TEMP              0 ****  ****    0 ROOT
