@<TRIPOS>MOLECULE
1LM
   19    20     1     0     0
SMALL
abcg2


@<TRIPOS>ATOM
      1 C01          2.3210    -1.1160     0.0620 ca         1 1LM      -0.123000
      2 C02          2.7020     0.2380     0.0290 ca         1 1LM      -0.095000
      3 C03          1.7510     1.2210    -0.0040 ca         1 1LM      -0.094000
      4 C04          0.3720     0.9040    -0.0070 ca         1 1LM       0.301000
      5 C05         -0.0100    -0.4620     0.0170 ca         1 1LM      -0.130000
      6 C06          0.9940    -1.4560     0.0580 ca         1 1LM      -0.086000
      7 C07         -1.4110    -0.7670     0.0070 ca         1 1LM       0.370000
      8 C08         -2.2880     0.3060    -0.0100 ca         1 1LM      -0.283000
      9 C09         -1.7850     1.6090    -0.0250 ca         1 1LM       0.394900
     10 N10         -0.5130     1.9290    -0.0290 nb         1 1LM      -0.699000
     11 N11         -1.8560    -2.0430     0.0560 nv         1 1LM      -1.096000
     12 H1           3.0760    -1.8890     0.0960 ha         1 1LM       0.113000
     13 H2           3.7530     0.4990     0.0320 ha         1 1LM       0.115000
     14 H3           2.0300     2.2670    -0.0250 ha         1 1LM       0.130000
     15 H4           0.7310    -2.5050     0.0940 ha         1 1LM       0.103000
     16 H5          -3.3580     0.1460    -0.0170 ha         1 1LM       0.119000
     17 H6          -2.4910     2.4330    -0.0420 h4         1 1LM       0.013100
     18 H7          -1.2550    -2.7990    -0.2240 hn         1 1LM       0.473500
     19 H8          -2.8330    -2.2090    -0.1170 hn         1 1LM       0.473500
@<TRIPOS>BOND
     1     1     2 ar  
     2     1     6 ar  
     3     1    12 1   
     4     2     3 ar  
     5     2    13 1   
     6     3     4 ar  
     7     3    14 1   
     8     4     5 ar  
     9     4    10 ar  
    10     5     6 ar  
    11     5     7 ar  
    12     6    15 1   
    13     7     8 ar  
    14     7    11 1   
    15     8     9 ar  
    16     8    16 1   
    17     9    10 ar  
    18     9    17 1   
    19    11    18 1   
    20    11    19 1   
@<TRIPOS>SUBSTRUCTURE
     1 1LM         1 TEMP              0 ****  ****    0 ROOT
