@<TRIPOS>MOLECULE
1LM
   19    20     1     0     0
SMALL
No Charge or Current Charge


@<TRIPOS>ATOM
      1 C01          2.3460    -1.1220     0.0570 ca         1 1LM      -0.123000
      2 C02          2.7330     0.2250     0.0300 ca         1 1LM      -0.095000
      3 C03          1.7540     1.2320     0.0020 ca         1 1LM      -0.094000
      4 C04          0.3820     0.9150    -0.0020 ca         1 1LM       0.301000
      5 C05         -0.0060    -0.4490     0.0220 ca         1 1LM      -0.130000
      6 C06          0.9840    -1.4620     0.0530 ca         1 1LM      -0.086000
      7 C07         -1.3860    -0.7470     0.0170 ca         1 1LM       0.370000
      8 C08         -2.3040     0.2970    -0.0090 ca         1 1LM      -0.283000
      9 C09         -1.8360     1.6110    -0.0310 ca         1 1LM       0.394900
     10 N10         -0.5230     1.9180    -0.0280 nb         1 1LM      -0.699000
     11 N11         -1.8720    -2.0270     0.0330 nv         1 1LM      -1.096000
     12 H1           3.1020    -1.9040     0.0810 ha         1 1LM       0.113000
     13 H2           3.7880     0.4910     0.0330 ha         1 1LM       0.115000
     14 H3           2.0600     2.2750    -0.0180 ha         1 1LM       0.130000
     15 H4           0.7130    -2.5140     0.0780 ha         1 1LM       0.103000
     16 H5          -3.3730     0.1060    -0.0120 ha         1 1LM       0.119000
     17 H6          -2.5320     2.4490    -0.0510 h4         1 1LM       0.013100
     18 H7          -1.2400    -2.8010    -0.1550 hn         1 1LM       0.473500
     19 H8          -2.8610    -2.1870    -0.1500 hn         1 1LM       0.473500
@<TRIPOS>BOND
     1     1     2 ar  
     2     1     6 ar  
     3     1    12 1   
     4     2     3 ar  
     5     2    13 1   
     6     3     4 ar  
     7     3    14 1   
     8     4     5 ar  
     9     4    10 ar  
    10     5     6 ar  
    11     5     7 ar  
    12     6    15 1   
    13     7     8 ar  
    14     7    11 1   
    15     8     9 ar  
    16     8    16 1   
    17     9    10 ar  
    18     9    17 1   
    19    11    18 1   
    20    11    19 1   
@<TRIPOS>SUBSTRUCTURE
     1 1LM         1 TEMP              0 ****  ****    0 ROOT
