@<TRIPOS>MOLECULE
1LN
   21    21     1     0     0
SMALL
No Charge or Current Charge


@<TRIPOS>ATOM
      1 C01         -4.6220     1.1800    17.3130 ca         1 1LN       0.043000
      2 C02         -5.4790     0.7450    16.2900 ca         1 1LN      -0.162000
      3 C03         -6.3600     1.6560    15.6800 ca         1 1LN      -0.023000
      4 N04         -6.3830     3.0040    16.0570 na         1 1LN      -0.028700
      5 C05         -5.5530     3.4280    17.1160 ca         1 1LN       0.184500
      6 C06         -4.6690     2.5220    17.7270 ca         1 1LN      -0.213000
      7 N07         -5.5910     4.7250    17.5780 nv         1 1LN      -0.503800
      8 C08         -7.2270     3.9490    15.2840 c3         1 1LN       0.025600
      9 C09         -8.6410     4.1520    15.8740 c3         1 1LN       0.144600
     10 O10         -9.3930     2.9300    15.8020 oh         1 1LN      -0.665000
     11 H1          -3.9380     0.4790    17.7910 ha         1 1LN       0.163000
     12 H2          -5.4660    -0.2970    15.9740 ha         1 1LN       0.176000
     13 H3          -7.0480     1.3360    14.8960 h4         1 1LN       0.183000
     14 H4          -4.0190     2.8510    18.5340 ha         1 1LN       0.164000
     15 H5          -5.0040     5.0100    18.3540 hn         1 1LN       0.370500
     16 H6          -6.2510     5.4000    17.2120 hn         1 1LN       0.370500
     17 H7          -7.3270     3.5760    14.2560 h1         1 1LN       0.095200
     18 H8          -6.7190     4.9180    15.2080 h1         1 1LN       0.095200
     19 H9          -8.5560     4.4940    16.9150 h1         1 1LN       0.049700
     20 H10         -9.1480     4.9440    15.3050 h1         1 1LN       0.049700
     21 H11        -10.2850     3.1130    16.1790 ho         1 1LN       0.480000
@<TRIPOS>BOND
     1     1     2 ar  
     2     1     6 ar  
     3     1    11 1   
     4     2     3 ar  
     5     2    12 1   
     6     3     4 1   
     7     3    13 1   
     8     4     5 2   
     9     4     8 1   
    10     5     6 ar  
    11     5     7 1   
    12     6    14 1   
    13     7    15 1   
    14     7    16 1   
    15     8     9 1   
    16     8    17 1   
    17     8    18 1   
    18     9    10 1   
    19     9    19 1   
    20     9    20 1   
    21    10    21 1   
@<TRIPOS>SUBSTRUCTURE
     1 1LN         1 TEMP              0 ****  ****    0 ROOT
