@<TRIPOS>MOLECULE
1LN
   21    21     1     0     0
SMALL
bcc


@<TRIPOS>ATOM
      1 C01         -4.8050     1.2000    17.3530 ca         1 1LN       0.025000
      2 C02         -5.5630     0.8010    16.2390 ca         1 1LN      -0.180000
      3 C03         -6.3020     1.7410    15.5990 ca         1 1LN       0.009700
      4 N04         -6.3190     3.0410    15.9970 na         1 1LN      -0.050100
      5 C05         -5.6090     3.4500    17.0750 ca         1 1LN       0.184500
      6 C06         -4.8260     2.4990    17.7640 ca         1 1LN      -0.231000
      7 N07         -5.6450     4.7150    17.4760 nv         1 1LN      -0.403200
      8 C08         -7.1970     3.9660    15.2700 c3         1 1LN      -0.003700
      9 C09         -8.5510     4.1020    15.9380 c3         1 1LN       0.121400
     10 O10         -9.1480     2.8320    15.9630 oh         1 1LN      -0.602800
     11 H1          -4.2000     0.4800    17.8870 ha         1 1LN       0.181000
     12 H2          -5.5670    -0.2180    15.8870 ha         1 1LN       0.194000
     13 H3          -6.9020     1.5110    14.7320 h4         1 1LN       0.201000
     14 H4          -4.2550     2.8300    18.6200 ha         1 1LN       0.182000
     15 H5          -5.0920     4.9940    18.2690 hn         1 1LN       0.320200
     16 H6          -6.1770     5.4410    17.0290 hn         1 1LN       0.320200
     17 H7          -7.3120     3.5770    14.2600 h1         1 1LN       0.095200
     18 H8          -6.7120     4.9350    15.1640 h1         1 1LN       0.095200
     19 H9          -8.4430     4.5220    16.9450 h1         1 1LN       0.049700
     20 H10         -9.1260     4.8280    15.3500 h1         1 1LN       0.049700
     21 H11         -9.9260     2.8700    16.5260 ho         1 1LN       0.441000
@<TRIPOS>BOND
     1     1     2 ar  
     2     1     6 ar  
     3     1    11 1   
     4     2     3 ar  
     5     2    12 1   
     6     3     4 1   
     7     3    13 1   
     8     4     5 2   
     9     4     8 1   
    10     5     6 ar  
    11     5     7 1   
    12     6    14 1   
    13     7    15 1   
    14     7    16 1   
    15     8     9 1   
    16     8    17 1   
    17     8    18 1   
    18     9    10 1   
    19     9    19 1   
    20     9    20 1   
    21    10    21 1   
@<TRIPOS>SUBSTRUCTURE
     1 1LN         1 TEMP              0 ****  ****    0 ROOT
