@<TRIPOS>MOLECULE
1LP
   20    20     1     0     0
SMALL
abcg2


@<TRIPOS>ATOM
      1 O2          -1.2500    -0.7880     2.7590 o          1 1LP      -0.510100
      2 C1          -0.2660    -0.6150     2.0860 c          1 1LP       0.580900
      3 C2           0.0630     0.6500     1.3310 c3         1 1LP      -0.138400
      4 C3           1.4130     1.1880     1.8090 c3         1 1LP      -0.079100
      5 C7           0.0330     0.3150    -0.1440 ca         1 1LP      -0.082300
      6 C6          -1.0500     0.7190    -0.9220 ca         1 1LP      -0.102500
      7 C5          -1.1120     0.4050    -2.2720 ca         1 1LP      -0.108000
      8 C4          -0.0930    -0.3320    -2.8630 ca         1 1LP      -0.106000
      9 C9           0.9840    -0.7500    -2.0940 ca         1 1LP      -0.108000
     10 C8           1.0480    -0.4290    -0.7450 ca         1 1LP      -0.102500
     11 H1C1         0.4910    -1.4140     1.9680 h4         1 1LP      -0.015800
     12 H2          -0.7170     1.3850     1.5430 hc         1 1LP       0.077700
     13 H3C1         2.2050     0.4420     1.7320 hc         1 1LP       0.041700
     14 H3C2         1.7070     2.0520     1.2140 hc         1 1LP       0.041700
     15 H3C3         1.3540     1.4980     2.8520 hc         1 1LP       0.041700
     16 H6          -1.8500     1.2890    -0.4660 ha         1 1LP       0.113500
     17 H5          -1.9560     0.7370    -2.8620 ha         1 1LP       0.114000
     18 H4          -0.1400    -0.5790    -3.9160 ha         1 1LP       0.114000
     19 H3           1.7820    -1.3250    -2.5460 ha         1 1LP       0.114000
     20 H7           1.8990    -0.7650    -0.1660 ha         1 1LP       0.113500
@<TRIPOS>BOND
     1     1     2 2   
     2     2     3 1   
     3     2    11 1   
     4     3     4 1   
     5     3     5 1   
     6     3    12 1   
     7     4    13 1   
     8     4    14 1   
     9     4    15 1   
    10     5     6 ar  
    11     5    10 ar  
    12     6     7 ar  
    13     6    16 1   
    14     7     8 ar  
    15     7    17 1   
    16     8     9 ar  
    17     8    18 1   
    18     9    10 ar  
    19     9    19 1   
    20    10    20 1   
@<TRIPOS>SUBSTRUCTURE
     1 1LP         1 TEMP              0 ****  ****    0 ROOT
