@<TRIPOS>MOLECULE
1LP
   20    20     1     0     0
SMALL
No Charge or Current Charge


@<TRIPOS>ATOM
      1 O2          -1.2000    -0.8580     2.8760 o          1 1LP      -0.510100
      2 C1          -0.2030    -0.6920     2.1790 c          1 1LP       0.580900
      3 C2           0.0540     0.5820     1.3570 c3         1 1LP      -0.138400
      4 C3           1.3750     1.2680     1.7800 c3         1 1LP      -0.079100
      5 C7           0.0170     0.2690    -0.1410 ca         1 1LP      -0.082300
      6 C6          -1.0280     0.7740    -0.9420 ca         1 1LP      -0.102500
      7 C5          -1.0740     0.4880    -2.3180 ca         1 1LP      -0.108000
      8 C4          -0.0760    -0.3070    -2.9050 ca         1 1LP      -0.106000
      9 C9           0.9670    -0.8160    -2.1150 ca         1 1LP      -0.108000
     10 C8           1.0140    -0.5310    -0.7390 ca         1 1LP      -0.102500
     11 H1C1         0.5820    -1.4770     2.1090 h4         1 1LP      -0.015800
     12 H2          -0.7620     1.2740     1.5970 hc         1 1LP       0.077700
     13 H3C1         2.2360     0.6030     1.6390 hc         1 1LP       0.041700
     14 H3C2         1.5420     2.1770     1.1900 hc         1 1LP       0.041700
     15 H3C3         1.3380     1.5540     2.8390 hc         1 1LP       0.041700
     16 H6          -1.8080     1.3910    -0.5010 ha         1 1LP       0.113500
     17 H5          -1.8830     0.8830    -2.9280 ha         1 1LP       0.114000
     18 H4          -0.1120    -0.5280    -3.9700 ha         1 1LP       0.114000
     19 H3           1.7400    -1.4340    -2.5680 ha         1 1LP       0.114000
     20 H7           1.8260    -0.9370    -0.1410 ha         1 1LP       0.113500
@<TRIPOS>BOND
     1     1     2 2   
     2     2     3 1   
     3     2    11 1   
     4     3     4 1   
     5     3     5 1   
     6     3    12 1   
     7     4    13 1   
     8     4    14 1   
     9     4    15 1   
    10     5     6 ar  
    11     5    10 ar  
    12     6     7 ar  
    13     6    16 1   
    14     7     8 ar  
    15     7    17 1   
    16     8     9 ar  
    17     8    18 1   
    18     9    10 ar  
    19     9    19 1   
    20    10    20 1   
@<TRIPOS>SUBSTRUCTURE
     1 1LP         1 TEMP              0 ****  ****    0 ROOT
