@<TRIPOS>MOLECULE
1LQ
   18    19     1     0     0
SMALL
abcg2


@<TRIPOS>ATOM
      1 CAE          1.7630     1.2400    -0.0020 ca         1 1LQ      -0.099000
      2 CAB          2.7190     0.2580    -0.0120 ca         1 1LQ      -0.082000
      3 CAC          2.3520    -1.0980    -0.0270 ca         1 1LQ      -0.128000
      4 CAF          1.0250    -1.4510    -0.0290 ca         1 1LQ      -0.071000
      5 C5           0.0280    -0.4590    -0.0170 ca         1 1LQ      -0.182000
      6 C4           0.3940     0.9030    -0.0030 ca         1 1LQ       0.054000
      7 N3          -0.5330     1.9000     0.0070 nb         1 1LQ      -0.215000
      8 C2          -1.7780     1.5170     0.0040 ca         1 1LQ       0.173900
      9 N1          -2.2600     0.2690    -0.0070 nb         1 1LQ      -0.298000
     10 C6          -1.3870    -0.7250    -0.0170 ca         1 1LQ       0.410900
     11 NAA         -1.8660    -1.9690    -0.0340 nv         1 1LQ      -1.078900
     12 H1           2.0360     2.2880     0.0090 ha         1 1LQ       0.134000
     13 H2           3.7680     0.5250    -0.0110 ha         1 1LQ       0.116000
     14 H3           3.1150    -1.8640    -0.0370 ha         1 1LQ       0.116000
     15 H4           0.7680    -2.5020    -0.0410 ha         1 1LQ       0.103000
     16 H5          -2.5290     2.3010     0.0130 h5         1 1LQ       0.043100
     17 H6          -1.2810    -2.7850    -0.0070 hn         1 1LQ       0.500500
     18 H7          -2.8610    -2.1130    -0.0120 hn         1 1LQ       0.500500
@<TRIPOS>BOND
     1     1     2 ar  
     2     1     6 ar  
     3     1    12 1   
     4     2     3 ar  
     5     2    13 1   
     6     3     4 ar  
     7     3    14 1   
     8     4     5 ar  
     9     4    15 1   
    10     5     6 ar  
    11     5    10 ar  
    12     6     7 ar  
    13     7     8 ar  
    14     8     9 ar  
    15     8    16 1   
    16     9    10 ar  
    17    10    11 1   
    18    11    17 1   
    19    11    18 1   
@<TRIPOS>SUBSTRUCTURE
     1 1LQ         1 TEMP              0 ****  ****    0 ROOT
