@<TRIPOS>MOLECULE
1LQ
   18    19     1     0     0
SMALL
No Charge or Current Charge


@<TRIPOS>ATOM
      1 CAE          1.7700     1.2530     0.0250 ca         1 1LQ      -0.099000
      2 CAB          2.7520     0.2490     0.0040 ca         1 1LQ      -0.082000
      3 CAC          2.3730    -1.1020    -0.0460 ca         1 1LQ      -0.128000
      4 CAF          1.0130    -1.4520    -0.0720 ca         1 1LQ      -0.071000
      5 C5           0.0230    -0.4430    -0.0480 ca         1 1LQ      -0.182000
      6 C4           0.4030     0.9220    -0.0020 ca         1 1LQ       0.054000
      7 N3          -0.5360     1.8920     0.0170 nb         1 1LQ      -0.215000
      8 C2          -1.8280     1.5070    -0.0110 ca         1 1LQ       0.173900
      9 N1          -2.2880     0.2420    -0.0540 nb         1 1LQ      -0.298000
     10 C6          -1.3620    -0.7240    -0.0720 ca         1 1LQ       0.410900
     11 NAA         -1.8790    -1.9830    -0.1070 nv         1 1LQ      -1.078900
     12 H1           2.0730     2.2970     0.0610 ha         1 1LQ       0.134000
     13 H2           3.8060     0.5180     0.0240 ha         1 1LQ       0.116000
     14 H3           3.1340    -1.8790    -0.0640 ha         1 1LQ       0.116000
     15 H4           0.7440    -2.5040    -0.1150 ha         1 1LQ       0.103000
     16 H5          -2.5750     2.2990     0.0040 h5         1 1LQ       0.043100
     17 H6          -1.2790    -2.7610     0.1540 hn         1 1LQ       0.500500
     18 H7          -2.8720    -2.0970     0.0820 hn         1 1LQ       0.500500
@<TRIPOS>BOND
     1     1     2 ar  
     2     1     6 ar  
     3     1    12 1   
     4     2     3 ar  
     5     2    13 1   
     6     3     4 ar  
     7     3    14 1   
     8     4     5 ar  
     9     4    15 1   
    10     5     6 ar  
    11     5    10 ar  
    12     6     7 ar  
    13     7     8 ar  
    14     8     9 ar  
    15     8    16 1   
    16     9    10 ar  
    17    10    11 1   
    18    11    17 1   
    19    11    18 1   
@<TRIPOS>SUBSTRUCTURE
     1 1LQ         1 TEMP              0 ****  ****    0 ROOT
