@<TRIPOS>MOLECULE
1LR
   29    30     1     0     0
SMALL
No Charge or Current Charge


@<TRIPOS>ATOM
      1 OAJ          1.2410    -1.5630     0.1030 oh         1 1LR      -0.677100
      2 CAC          1.6510    -0.2650     0.0970 ca         1 1LR       0.184100
      3 CAD          3.0350     0.0300     0.1230 ca         1 1LR      -0.262600
      4 CAG          4.0880    -1.0600     0.1590 c          1 1LR       0.725600
      5 OAH          5.2650    -0.7380     0.1810 o          1 1LR      -0.685500
      6 OAI          3.7110    -2.2260     0.1650 o          1 1LR      -0.685500
      7 CAE          3.4300     1.3880     0.1150 ca         1 1LR      -0.042000
      8 CAF          2.4710     2.4110     0.0820 ca         1 1LR      -0.194000
      9 CAA          1.1020     2.1060     0.0560 ca         1 1LR      -0.091000
     10 CAB          0.6800     0.7600     0.0630 ca         1 1LR      -0.143000
     11 NAK         -0.6950     0.3720     0.0380 ns         1 1LR      -0.111000
     12 CAL         -1.8890     1.0860     0.0030 c          1 1LR       0.603700
     13 OAM         -1.9430     2.3130    -0.0130 o          1 1LR      -0.620100
     14 CAN         -3.1560     0.2460    -0.0140 ca         1 1LR      -0.136600
     15 CAO         -4.4170     0.8890    -0.0500 ca         1 1LR      -0.073500
     16 CAP         -5.6070     0.1410    -0.0670 ca         1 1LR      -0.126500
     17 CAQ         -5.5590    -1.2610    -0.0480 ca         1 1LR      -0.105000
     18 CAR         -4.3190    -1.9150    -0.0130 ca         1 1LR      -0.126500
     19 CAS         -3.1240    -1.1720     0.0040 ca         1 1LR      -0.073500
     20 H2           4.4840     1.6590     0.1350 ha         1 1LR       0.120000
     21 H3           2.7920     3.4500     0.0770 ha         1 1LR       0.091000
     22 H4           0.3930     2.9280     0.0310 ha         1 1LR       0.121000
     23 H5          -4.4800     1.9750    -0.0650 ha         1 1LR       0.129000
     24 H6          -6.5680     0.6510    -0.0940 ha         1 1LR       0.108000
     25 H7          -6.4810    -1.8390    -0.0610 ha         1 1LR       0.103000
     26 H8          -4.2810    -3.0020     0.0020 ha         1 1LR       0.108000
     27 H9          -2.1850    -1.7200     0.0320 ha         1 1LR       0.129000
     28 H10          2.0960    -2.0870     0.1280 ho         1 1LR       0.560000
     29 H11         -0.8160    -0.6320     0.0480 hn         1 1LR       0.171000
@<TRIPOS>BOND
     1     1     2 1   
     2     1    28 1   
     3     2     3 ar  
     4     2    10 ar  
     5     3     4 1   
     6     3     7 ar  
     7     4     5 1   
     8     4     6 1   
     9     7     8 ar  
    10     7    20 1   
    11     8     9 ar  
    12     8    21 1   
    13     9    10 ar  
    14     9    22 1   
    15    10    11 1   
    16    11    12 1   
    17    11    29 1   
    18    12    13 2   
    19    12    14 1   
    20    14    15 ar  
    21    14    19 ar  
    22    15    16 ar  
    23    15    23 1   
    24    16    17 ar  
    25    16    24 1   
    26    17    18 ar  
    27    17    25 1   
    28    18    19 ar  
    29    18    26 1   
    30    19    27 1   
@<TRIPOS>SUBSTRUCTURE
     1 1LR         1 TEMP              0 ****  ****    0 ROOT
