@<TRIPOS>MOLECULE
1LR
   29    30     1     0     0
SMALL
abcg2


@<TRIPOS>ATOM
      1 OAJ          1.2150    -1.4980    -0.2750 oh         1 1LR      -0.677100
      2 CAC          1.6130    -0.2490    -0.0530 ca         1 1LR       0.184100
      3 CAD          2.9740     0.0820    -0.0180 ca         1 1LR      -0.262600
      4 CAG          3.9950    -1.0000    -0.2400 c          1 1LR       0.725600
      5 OAH          5.1940    -0.7230    -0.2120 o          1 1LR      -0.685500
      6 OAI          3.5190    -2.1660    -0.4480 o          1 1LR      -0.685500
      7 CAE          3.3500     1.4020     0.2230 ca         1 1LR      -0.042000
      8 CAF          2.3920     2.3760     0.4250 ca         1 1LR      -0.194000
      9 CAA          1.0360     2.0540     0.3890 ca         1 1LR      -0.091000
     10 CAB          0.6340     0.7470     0.1470 ca         1 1LR      -0.143000
     11 NAK         -0.6900     0.2960     0.0970 ns         1 1LR      -0.111000
     12 CAL         -1.8340     1.0160     0.0960 c          1 1LR       0.603700
     13 OAM         -1.8760     2.2370     0.1150 o          1 1LR      -0.620100
     14 CAN         -3.0870     0.2020     0.0510 ca         1 1LR      -0.136600
     15 CAO         -4.2110     0.7620    -0.5550 ca         1 1LR      -0.073500
     16 CAP         -5.3990     0.0520    -0.6170 ca         1 1LR      -0.126500
     17 CAQ         -5.4850    -1.2150    -0.0540 ca         1 1LR      -0.105000
     18 CAR         -4.3760    -1.7700     0.5700 ca         1 1LR      -0.126500
     19 CAS         -3.1810    -1.0670     0.6200 ca         1 1LR      -0.073500
     20 H2           4.4020     1.6540     0.2520 ha         1 1LR       0.120000
     21 H3           2.6840     3.4000     0.6160 ha         1 1LR       0.091000
     22 H4           0.3030     2.8280     0.5470 ha         1 1LR       0.121000
     23 H5          -4.1510     1.7510    -0.9890 ha         1 1LR       0.129000
     24 H6          -6.2610     0.4900    -1.1030 ha         1 1LR       0.108000
     25 H7          -6.4150    -1.7660    -0.0950 ha         1 1LR       0.103000
     26 H8          -4.4410    -2.7490     1.0250 ha         1 1LR       0.108000
     27 H9          -2.3380    -1.5090     1.1360 ha         1 1LR       0.129000
     28 H10          2.1280    -2.0100    -0.3880 ho         1 1LR       0.560000
     29 H11         -0.7740    -0.7000    -0.0460 hn         1 1LR       0.171000
@<TRIPOS>BOND
     1     1     2 1   
     2     1    28 1   
     3     2     3 ar  
     4     2    10 ar  
     5     3     4 1   
     6     3     7 ar  
     7     4     5 1   
     8     4     6 1   
     9     7     8 ar  
    10     7    20 1   
    11     8     9 ar  
    12     8    21 1   
    13     9    10 ar  
    14     9    22 1   
    15    10    11 1   
    16    11    12 1   
    17    11    29 1   
    18    12    13 2   
    19    12    14 1   
    20    14    15 ar  
    21    14    19 ar  
    22    15    16 ar  
    23    15    23 1   
    24    16    17 ar  
    25    16    24 1   
    26    17    18 ar  
    27    17    25 1   
    28    18    19 ar  
    29    18    26 1   
    30    19    27 1   
@<TRIPOS>SUBSTRUCTURE
     1 1LR         1 TEMP              0 ****  ****    0 ROOT
