@<TRIPOS>MOLECULE
1LS
   48    50     1     0     0
SMALL
bcc


@<TRIPOS>ATOM
      1 C4          -6.7300    -1.3030     1.0070 ca         1 1LS       0.419200
      2 C6          -8.4640     0.1600     0.8640 ca         1 1LS       0.414200
      3 C7          -4.7090    -1.2140    -0.4910 c3         1 1LS       0.161300
      4 C13          0.4610     0.6170    -1.2170 ca         1 1LS      -0.170000
      5 C15          2.5080     1.2900    -0.1500 ca         1 1LS      -0.325500
      6 C17          0.4910     1.1630     1.1300 ca         1 1LS      -0.170000
      7 C22          4.7970    -0.9360    -0.9940 c6         1 1LS       0.188300
      8 C24          5.7270    -2.6510     0.5840 c6         1 1LS      -0.075400
      9 C26          4.7870    -0.4710     1.4100 c6         1 1LS       0.188300
     10 C1          -7.8730     0.8380    -0.1920 ca         1 1LS      -0.248300
     11 C2          -6.6430     0.3980    -0.6520 ca         1 1LS      -0.075000
     12 C3          -6.0470    -0.7020    -0.0430 ca         1 1LS      -0.246600
     13 N5          -7.9100    -0.8910     1.4550 nb         1 1LS      -0.662000
     14 N8          -3.6680    -0.3030    -0.0570 ns         1 1LS      -0.514900
     15 C9          -2.3920    -0.3910    -0.4410 cs         1 1LS       0.604400
     16 S10         -1.8730    -1.5570    -1.5230 s          1 1LS      -0.626400
     17 N11         -1.5810     0.5290     0.1520 ns         1 1LS      -0.437100
     18 C12         -0.2110     0.7370     0.0000 ca         1 1LS       0.121600
     19 C14          1.8170     0.8840    -1.2860 ca         1 1LS      -0.013000
     20 C16          1.8420     1.4410     1.0600 ca         1 1LS      -0.013000
     21 O19          4.6000     1.9290    -1.5870 o          1 1LS      -0.606800
     22 O20          4.6300     2.4210     0.8710 o          1 1LS      -0.606800
     23 N21          4.9540     0.0750     0.0580 n3         1 1LS      -0.706500
     24 C23          5.8320    -2.0340    -0.8040 c6         1 1LS      -0.073400
     25 C25          5.8150    -1.5660     1.6480 c6         1 1LS      -0.073400
     26 H1          -6.2980    -2.1640     1.5060 h4         1 1LS       0.023100
     27 H2          -9.4280     0.4790     1.2460 h4         1 1LS       0.025100
     28 H3          -4.5320    -2.2160    -0.0900 h1         1 1LS       0.080700
     29 H4          -4.6770    -1.2980    -1.5780 h1         1 1LS       0.080700
     30 H5          -0.0680     0.3300    -2.1110 ha         1 1LS       0.153000
     31 H6          -0.0260     1.2760     2.0740 ha         1 1LS       0.153000
     32 H8           4.9270    -0.4710    -1.9690 h1         1 1LS       0.053950
     33 H9           4.7720    -3.1790     0.6750 hc         1 1LS       0.043700
     34 H10          6.5120    -3.3940     0.7310 hc         1 1LS       0.043700
     35 H11          4.9200     0.3230     2.1420 h1         1 1LS       0.053950
     36 H12          3.7740    -0.8790     1.5380 h1         1 1LS       0.053950
     37 H13         -8.3700     1.6860    -0.6430 ha         1 1LS       0.148000
     38 H14         -6.1530     0.9010    -1.4780 ha         1 1LS       0.145000
     39 H15         -3.9230     0.3760     0.6470 hn         1 1LS       0.309500
     40 H16         -1.9850     1.0390     0.9260 hn         1 1LS       0.307500
     41 H17          2.3190     0.7960    -2.2400 ha         1 1LS       0.156000
     42 H18          2.3600     1.7750     1.9480 ha         1 1LS       0.156000
     43 H19          5.6780    -2.7880    -1.5780 hc         1 1LS       0.052700
     44 H20          6.8310    -1.6170    -0.9560 hc         1 1LS       0.052700
     45 H21          5.6500    -1.9820     2.6430 hc         1 1LS       0.052700
     46 H22          6.8140    -1.1210     1.6460 hc         1 1LS       0.052700
     47 S18          4.2540     1.5460    -0.2280 sy         1 1LS       1.294200
     48 H7           3.7880    -1.3690    -0.9590 h1         1 1LS       0.053950
@<TRIPOS>BOND
     1     1    12 ar  
     2     1    13 ar  
     3     1    26 1   
     4     2    10 ar  
     5     2    13 ar  
     6     2    27 1   
     7     3    12 1   
     8     3    14 1   
     9     3    28 1   
    10     3    29 1   
    11     4    18 ar  
    12     4    19 ar  
    13     4    30 1   
    14     5    19 ar  
    15     5    20 ar  
    16     5    47 1   
    17     6    18 ar  
    18     6    20 ar  
    19     6    31 1   
    20     7    23 1   
    21     7    24 1   
    22     7    32 1   
    23     7    48 1   
    24     8    24 1   
    25     8    25 1   
    26     8    33 1   
    27     8    34 1   
    28     9    23 1   
    29     9    25 1   
    30     9    35 1   
    31     9    36 1   
    32    10    11 ar  
    33    10    37 1   
    34    11    12 ar  
    35    11    38 1   
    36    14    15 1   
    37    14    39 1   
    38    15    16 2   
    39    15    17 1   
    40    17    18 1   
    41    17    40 1   
    42    19    41 1   
    43    20    42 1   
    44    21    47 2   
    45    22    47 2   
    46    23    47 1   
    47    24    43 1   
    48    24    44 1   
    49    25    45 1   
    50    25    46 1   
@<TRIPOS>SUBSTRUCTURE
     1 1LS         1 TEMP              0 ****  ****    0 ROOT
