@<TRIPOS>MOLECULE
1LS
   48    50     1     0     0
SMALL
No Charge or Current Charge


@<TRIPOS>ATOM
      1 C4          -6.6880    -1.4770     0.9020 ca         1 1LS       0.353900
      2 C6          -8.4230     0.0290     1.2110 ca         1 1LS       0.348900
      3 C7          -4.8130    -1.1060    -0.7730 c3         1 1LS       0.161300
      4 C13          0.5550     0.5140    -1.3420 ca         1 1LS      -0.152000
      5 C15          2.5970     1.2780    -0.2520 ca         1 1LS      -0.325500
      6 C17          0.5210     1.1110     1.0090 ca         1 1LS      -0.152000
      7 C22          4.8660    -0.8950    -0.9320 c6         1 1LS       0.188300
      8 C24          5.5350    -2.6520     0.7910 c6         1 1LS      -0.075400
      9 C26          4.8430    -0.2870     1.4460 c6         1 1LS       0.188300
     10 C1          -7.9030     0.8950     0.2340 ca         1 1LS      -0.165000
     11 C2          -6.7170     0.5450    -0.4320 ca         1 1LS      -0.057000
     12 C3          -6.0960    -0.6690    -0.0890 ca         1 1LS      -0.181300
     13 N5          -7.8310    -1.1410     1.5450 nb         1 1LS      -0.662000
     14 N8          -3.6690    -0.3420    -0.2810 ns         1 1LS      -0.447900
     15 C9          -2.3780    -0.4850    -0.7000 cs         1 1LS       0.470400
     16 S10         -1.9200    -1.6230    -1.8370 s          1 1LS      -0.626400
     17 N11         -1.5340     0.3520    -0.0210 ns         1 1LS      -0.370100
     18 C12         -0.1520     0.6380    -0.1300 ca         1 1LS       0.121600
     19 C14          1.9230     0.8290    -1.4050 ca         1 1LS       0.005000
     20 C16          1.8890     1.4270     0.9560 ca         1 1LS       0.005000
     21 O19          4.7340     1.9760    -1.7130 o          1 1LS      -0.536000
     22 O20          4.6970     2.6030     0.7570 o          1 1LS      -0.536000
     23 N21          5.1000     0.1900     0.0600 n3         1 1LS      -0.706500
     24 C23          5.7560    -2.1290    -0.6460 c6         1 1LS      -0.073400
     25 C25          5.7310    -1.5030     1.8040 c6         1 1LS      -0.073400
     26 H1          -6.2340    -2.4240     1.1930 h4         1 1LS       0.023100
     27 H2          -9.3410     0.2790     1.7410 h4         1 1LS       0.025100
     28 H3          -4.6330    -2.1760    -0.5940 h1         1 1LS       0.080700
     29 H4          -4.9040    -0.9570    -1.8580 h1         1 1LS       0.080700
     30 H5           0.0520     0.1960    -2.2480 ha         1 1LS       0.135000
     31 H6          -0.0150     1.2280     1.9480 ha         1 1LS       0.135000
     32 H8           5.0890    -0.5470    -1.9510 h1         1 1LS       0.053950
     33 H9           4.5200    -3.0620     0.8850 hc         1 1LS       0.043700
     34 H10          6.2310    -3.4730     1.0080 hc         1 1LS       0.043700
     35 H11          5.0480     0.5080     2.1780 h1         1 1LS       0.053950
     36 H12          3.7870    -0.5710     1.5660 h1         1 1LS       0.053950
     37 H13         -8.4170     1.8230     0.0020 ha         1 1LS       0.130000
     38 H14         -6.2940     1.1990    -1.1930 ha         1 1LS       0.127000
     39 H15         -3.8590     0.3600     0.4220 hn         1 1LS       0.309500
     40 H16         -1.9870     0.8980     0.7000 hn         1 1LS       0.307500
     41 H17          2.4510     0.7250    -2.3520 ha         1 1LS       0.138000
     42 H18          2.3910     1.7840     1.8540 ha         1 1LS       0.138000
     43 H19          5.5380    -2.9220    -1.3730 hc         1 1LS       0.052700
     44 H20          6.8120    -1.8570    -0.7850 hc         1 1LS       0.052700
     45 H21          5.4950    -1.8510     2.8190 hc         1 1LS       0.052700
     46 H22          6.7850    -1.1930     1.8160 hc         1 1LS       0.052700
     47 S18          4.3530     1.6760    -0.3280 sy         1 1LS       1.152600
     48 H7           3.8120    -1.2070    -0.9200 h1         1 1LS       0.053950
@<TRIPOS>BOND
     1     1    12 ar  
     2     1    13 ar  
     3     1    26 1   
     4     2    10 ar  
     5     2    13 ar  
     6     2    27 1   
     7     3    12 1   
     8     3    14 1   
     9     3    28 1   
    10     3    29 1   
    11     4    18 ar  
    12     4    19 ar  
    13     4    30 1   
    14     5    19 ar  
    15     5    20 ar  
    16     5    47 1   
    17     6    18 ar  
    18     6    20 ar  
    19     6    31 1   
    20     7    23 1   
    21     7    24 1   
    22     7    32 1   
    23     7    48 1   
    24     8    24 1   
    25     8    25 1   
    26     8    33 1   
    27     8    34 1   
    28     9    23 1   
    29     9    25 1   
    30     9    35 1   
    31     9    36 1   
    32    10    11 ar  
    33    10    37 1   
    34    11    12 ar  
    35    11    38 1   
    36    14    15 1   
    37    14    39 1   
    38    15    16 2   
    39    15    17 1   
    40    17    18 1   
    41    17    40 1   
    42    19    41 1   
    43    20    42 1   
    44    21    47 2   
    45    22    47 2   
    46    23    47 1   
    47    24    43 1   
    48    24    44 1   
    49    25    45 1   
    50    25    46 1   
@<TRIPOS>SUBSTRUCTURE
     1 1LS         1 TEMP              0 ****  ****    0 ROOT
