@<TRIPOS>MOLECULE
1LT
   52    54     1     0     0
SMALL
abcg2


@<TRIPOS>ATOM
      1 C1          -0.1220     1.9240     0.7460 cc         1 1LT       0.362300
      2 C2          -1.5860     0.5520    -0.1550 cd         1 1LT       0.612300
      3 C3          -4.0340     0.4210    -0.2290 c          1 1LT       0.674100
      4 O1          -6.1580    -0.5240     1.9720 o          1 1LT      -0.592100
      5 C11          2.8340     2.5670    -0.1450 ca         1 1LT      -0.148000
      6 C12          4.2100     2.6030    -0.2890 ca         1 1LT       0.342900
      7 C13          4.3670     0.3400    -0.5190 ca         1 1LT       0.341300
      8 C14          2.9940     0.2010    -0.3680 ca         1 1LT      -0.141000
      9 C15          5.2770    -0.8720    -0.7280 c3         1 1LT      -0.148300
     10 C16          4.5260    -2.0520    -1.3560 c3         1 1LT      -0.088100
     11 C17          6.4570    -0.5060    -1.6370 c3         1 1LT      -0.088100
     12 C18          5.8010    -1.2880     0.6450 c3         1 1LT       0.301000
     13 F2           6.5170    -0.3260     1.2380 f          1 1LT      -0.114333
     14 F            4.8050    -1.5970     1.4900 f          1 1LT      -0.114333
     15 F1           6.5920    -2.3690     0.5780 f          1 1LT      -0.114333
     16 N4           4.9620     1.5280    -0.4720 nb         1 1LT      -0.660000
     17 C10          2.1940     1.3290    -0.1760 ca         1 1LT       0.049000
     18 C9           0.7500     1.2120    -0.0310 cd         1 1LT      -0.212000
     19 C            0.2280     3.0320     1.6830 c3         1 1LT      -0.130400
     20 S           -0.1290     0.0030    -0.9170 ss         1 1LT      -0.107400
     21 N           -1.4310     1.5360     0.6660 nc         1 1LT      -0.660000
     22 N1          -2.7590    -0.0860    -0.4560 ns         1 1LT      -0.491400
     23 O           -4.2380     1.5440     0.1920 o          1 1LT      -0.572100
     24 N2          -5.0240    -0.4380    -0.5440 n          1 1LT      -0.418800
     25 C7          -6.3970    -0.0260    -0.3690 c5         1 1LT       0.039700
     26 C8          -6.7390     0.1180     1.1120 c          1 1LT       0.596100
     27 N3          -7.7560     0.9510     1.3640 nt         1 1LT      -0.604000
     28 C6          -7.1800    -1.1820    -1.0060 c5         1 1LT      -0.083400
     29 C5          -6.3010    -2.3990    -0.7390 c5         1 1LT      -0.091400
     30 C4          -4.8810    -1.8550    -0.8660 c5         1 1LT       0.107000
     31 H1           2.2810     3.4890    -0.0400 ha         1 1LT       0.131000
     32 H2           4.7270     3.5560    -0.2690 h4         1 1LT       0.023100
     33 H3           2.5400    -0.7800    -0.3870 ha         1 1LT       0.131000
     34 H4           4.0780    -1.7350    -2.2970 hc         1 1LT       0.053200
     35 H5           5.2110    -2.8690    -1.5770 hc         1 1LT       0.053200
     36 H6           3.7310    -2.4520    -0.7290 hc         1 1LT       0.053200
     37 H7           7.0400     0.3260    -1.2520 hc         1 1LT       0.053200
     38 H8           7.1170    -1.3610    -1.7820 hc         1 1LT       0.053200
     39 H9           6.0750    -0.2190    -2.6160 hc         1 1LT       0.053200
     40 H10          0.1430     4.0050     1.1950 hc         1 1LT       0.057367
     41 H11         -0.4580     3.0310     2.5280 hc         1 1LT       0.057367
     42 H12          1.2430     2.9400     2.0640 hc         1 1LT       0.057367
     43 H13         -2.6780    -0.9420    -0.9820 hn         1 1LT       0.328500
     44 H14         -6.5970     0.9140    -0.8890 h1         1 1LT       0.079700
     45 H15         -8.1880     1.4970     0.6380 hn         1 1LT       0.314500
     46 H16         -8.1080     1.0650     2.3000 hn         1 1LT       0.314500
     47 H17         -8.1880    -1.2790    -0.6050 hc         1 1LT       0.059200
     48 H18         -7.2690    -0.9990    -2.0790 hc         1 1LT       0.059200
     49 H19         -6.4690    -2.7780     0.2690 hc         1 1LT       0.064700
     50 H20         -6.4860    -3.2140    -1.4370 hc         1 1LT       0.064700
     51 H21         -4.5010    -1.9860    -1.8840 h1         1 1LT       0.045700
     52 H22         -4.1940    -2.3530    -0.1790 h1         1 1LT       0.045700
@<TRIPOS>BOND
     1     1    18 2   
     2     1    19 1   
     3     1    21 1   
     4     2    20 1   
     5     2    21 2   
     6     2    22 1   
     7     3    22 1   
     8     3    23 2   
     9     3    24 1   
    10     4    26 2   
    11     5     6 ar  
    12     5    17 ar  
    13     5    31 1   
    14     6    16 ar  
    15     6    32 1   
    16     7     8 ar  
    17     7     9 1   
    18     7    16 ar  
    19     8    17 ar  
    20     8    33 1   
    21     9    10 1   
    22     9    11 1   
    23     9    12 1   
    24    10    34 1   
    25    10    35 1   
    26    10    36 1   
    27    11    37 1   
    28    11    38 1   
    29    11    39 1   
    30    12    13 1   
    31    12    14 1   
    32    12    15 1   
    33    17    18 1   
    34    18    20 1   
    35    19    40 1   
    36    19    41 1   
    37    19    42 1   
    38    22    43 1   
    39    24    25 1   
    40    24    30 1   
    41    25    26 1   
    42    25    28 1   
    43    25    44 1   
    44    26    27 1   
    45    27    45 1   
    46    27    46 1   
    47    28    29 1   
    48    28    47 1   
    49    28    48 1   
    50    29    30 1   
    51    29    49 1   
    52    29    50 1   
    53    30    51 1   
    54    30    52 1   
@<TRIPOS>SUBSTRUCTURE
     1 1LT         1 TEMP              0 ****  ****    0 ROOT
