@<TRIPOS>MOLECULE
1LT
   52    54     1     0     0
SMALL
No Charge or Current Charge


@<TRIPOS>ATOM
      1 C1          -0.0670     2.2920     0.5280 cc         1 1LT       0.362300
      2 C2          -1.5400     0.7400    -0.0530 cd         1 1LT       0.612300
      3 C3          -4.0020     0.5460     0.0000 c          1 1LT       0.674100
      4 O1          -6.2710    -0.4610     2.3260 o          1 1LT      -0.592100
      5 C11          3.0370     2.6140    -0.0550 ca         1 1LT      -0.148000
      6 C12          4.4270     2.5920    -0.2270 ca         1 1LT       0.342900
      7 C13          4.4560     0.2850    -0.5000 ca         1 1LT       0.341300
      8 C14          3.0530     0.2350    -0.3330 ca         1 1LT      -0.141000
      9 C15          5.2930    -1.0030    -0.7460 c3         1 1LT      -0.148300
     10 C16          4.6140    -1.8800    -1.8470 c3         1 1LT      -0.088100
     11 C17          6.7340    -0.6720    -1.2690 c3         1 1LT      -0.088100
     12 C18          5.3980    -1.7980     0.6010 c3         1 1LT       0.301000
     13 F2           5.9740    -1.0490     1.5700 f          1 1LT      -0.114333
     14 F            4.1830    -2.1810     1.0570 f          1 1LT      -0.114333
     15 F1           6.1430    -2.9190     0.4580 f          1 1LT      -0.114333
     16 N4           5.1260     1.4600    -0.4410 nb         1 1LT      -0.660000
     17 C10          2.3080     1.4100    -0.0970 ca         1 1LT       0.049000
     18 C9           0.8310     1.3380     0.0730 cd         1 1LT      -0.212000
     19 C            0.2240     3.6390     1.1290 c3         1 1LT      -0.130400
     20 S           -0.0520    -0.0810    -0.4840 ss         1 1LT      -0.107400
     21 N           -1.3920     1.9440     0.4610 nc         1 1LT      -0.660000
     22 N1          -2.7320     0.1030    -0.2570 ns         1 1LT      -0.491400
     23 O           -4.2620     1.6430     0.4680 o          1 1LT      -0.572100
     24 N2          -5.0230    -0.3650    -0.3280 n          1 1LT      -0.418800
     25 C7          -6.4640    -0.0450    -0.1230 c5         1 1LT       0.039700
     26 C8          -6.9480    -0.1340     1.3630 c          1 1LT       0.596100
     27 N3          -8.2480     0.1960     1.5540 nt         1 1LT      -0.604000
     28 C6          -7.1450    -1.1460    -0.9940 c5         1 1LT      -0.083400
     29 C5          -6.2050    -2.3580    -0.7700 c5         1 1LT      -0.091400
     30 C4          -4.8030    -1.7110    -0.9110 c5         1 1LT       0.107000
     31 H1           2.5630     3.5770     0.0760 ha         1 1LT       0.131000
     32 H2           5.0020     3.5170    -0.2010 h4         1 1LT       0.023100
     33 H3           2.5530    -0.7240    -0.3630 ha         1 1LT       0.131000
     34 H4           4.4540    -1.2960    -2.7620 hc         1 1LT       0.053200
     35 H5           5.2400    -2.7420    -2.1080 hc         1 1LT       0.053200
     36 H6           3.6440    -2.2750    -1.5270 hc         1 1LT       0.053200
     37 H7           7.3130    -0.1030    -0.5310 hc         1 1LT       0.053200
     38 H8           7.2980    -1.5860    -1.4910 hc         1 1LT       0.053200
     39 H9           6.6890    -0.0810    -2.1920 hc         1 1LT       0.053200
     40 H10          0.4460     4.3760     0.3480 hc         1 1LT       0.057367
     41 H11         -0.6340     4.0150     1.6980 hc         1 1LT       0.057367
     42 H12          1.0700     3.5860     1.8230 hc         1 1LT       0.057367
     43 H13         -2.6920    -0.8200    -0.6540 hn         1 1LT       0.328500
     44 H14         -6.7130     0.9580    -0.4930 h1         1 1LT       0.079700
     45 H15         -8.8230     0.4730     0.7720 hn         1 1LT       0.314500
     46 H16         -8.6320     0.1640     2.4860 hn         1 1LT       0.314500
     47 H17         -8.1830    -1.3550    -0.7100 hc         1 1LT       0.059200
     48 H18         -7.1560    -0.8530    -2.0510 hc         1 1LT       0.059200
     49 H19         -6.3420    -2.7880     0.2290 hc         1 1LT       0.064700
     50 H20         -6.3680    -3.1620    -1.4960 hc         1 1LT       0.064700
     51 H21         -4.5030    -1.6300    -1.9650 h1         1 1LT       0.045700
     52 H22         -4.0420    -2.2880    -0.3690 h1         1 1LT       0.045700
@<TRIPOS>BOND
     1     1    18 2   
     2     1    19 1   
     3     1    21 1   
     4     2    20 1   
     5     2    21 2   
     6     2    22 1   
     7     3    22 1   
     8     3    23 2   
     9     3    24 1   
    10     4    26 2   
    11     5     6 ar  
    12     5    17 ar  
    13     5    31 1   
    14     6    16 ar  
    15     6    32 1   
    16     7     8 ar  
    17     7     9 1   
    18     7    16 ar  
    19     8    17 ar  
    20     8    33 1   
    21     9    10 1   
    22     9    11 1   
    23     9    12 1   
    24    10    34 1   
    25    10    35 1   
    26    10    36 1   
    27    11    37 1   
    28    11    38 1   
    29    11    39 1   
    30    12    13 1   
    31    12    14 1   
    32    12    15 1   
    33    17    18 1   
    34    18    20 1   
    35    19    40 1   
    36    19    41 1   
    37    19    42 1   
    38    22    43 1   
    39    24    25 1   
    40    24    30 1   
    41    25    26 1   
    42    25    28 1   
    43    25    44 1   
    44    26    27 1   
    45    27    45 1   
    46    27    46 1   
    47    28    29 1   
    48    28    47 1   
    49    28    48 1   
    50    29    30 1   
    51    29    49 1   
    52    29    50 1   
    53    30    51 1   
    54    30    52 1   
@<TRIPOS>SUBSTRUCTURE
     1 1LT         1 TEMP              0 ****  ****    0 ROOT
