@<TRIPOS>MOLECULE
1LU
   20    19     1     0     0
SMALL
No Charge or Current Charge


@<TRIPOS>ATOM
      1 OS           0.5100     1.7770     0.3150 oh         1 1LU      -0.714000
      2 CA           0.5340     0.3250     0.3540 c3         1 1LU       0.020300
      3 C            1.9260    -0.2450    -0.1130 c          1 1LU       0.691000
      4 O            2.6550     0.4990    -0.7580 o          1 1LU      -0.725000
      5 CB          -0.6190    -0.2440    -0.5200 c3         1 1LU      -0.070400
      6 CG          -2.0620     0.1270    -0.0700 c3         1 1LU      -0.061700
      7 CD1         -3.1040    -0.3660    -1.1000 c3         1 1LU      -0.079600
      8 CD2         -2.4030    -0.3990     1.3460 c3         1 1LU      -0.079600
      9 OXT          2.2740    -1.3480     0.2850 o          1 1LU      -0.725000
     10 HOS          1.3130     2.0250    -0.2050 ho         1 1LU       0.471000
     11 HA           0.3920    -0.0170     1.3880 h1         1 1LU       0.028700
     12 HB1         -0.4680     0.0950    -1.5530 hc         1 1LU       0.039200
     13 HB2         -0.5310    -1.3370    -0.5430 hc         1 1LU       0.039200
     14 HG          -2.1380     1.2210    -0.0400 hc         1 1LU       0.051700
     15 HD11        -2.8980     0.0530    -2.0920 hc         1 1LU       0.019200
     16 HD12        -3.0890    -1.4600    -1.1790 hc         1 1LU       0.019200
     17 HD13        -4.1150    -0.0570    -0.8080 hc         1 1LU       0.019200
     18 HD21        -1.7540     0.0530     2.1040 hc         1 1LU       0.019200
     19 HD22        -3.4380    -0.1510     1.6100 hc         1 1LU       0.019200
     20 HD23        -2.2890    -1.4880     1.3970 hc         1 1LU       0.019200
@<TRIPOS>BOND
     1     1     2 1   
     2     1    10 1   
     3     2     3 1   
     4     2     5 1   
     5     2    11 1   
     6     3     4 1   
     7     3     9 1   
     8     5     6 1   
     9     5    12 1   
    10     5    13 1   
    11     6     7 1   
    12     6     8 1   
    13     6    14 1   
    14     7    15 1   
    15     7    16 1   
    16     7    17 1   
    17     8    18 1   
    18     8    19 1   
    19     8    20 1   
@<TRIPOS>SUBSTRUCTURE
     1 1LU         1 TEMP              0 ****  ****    0 ROOT
