@<TRIPOS>MOLECULE
1LU
   20    19     1     0     0
SMALL
abcg2


@<TRIPOS>ATOM
      1 OS           0.4820     1.7280     0.3220 oh         1 1LU      -0.714000
      2 CA           0.5020     0.3200     0.3590 c3         1 1LU       0.020300
      3 C            1.8740    -0.1860    -0.1370 c          1 1LU       0.691000
      4 O            2.6270     0.7040    -0.5980 o          1 1LU      -0.725000
      5 CB          -0.6220    -0.2790    -0.4850 c3         1 1LU      -0.070400
      6 CG          -2.0350     0.1360    -0.0710 c3         1 1LU      -0.061700
      7 CD1         -3.0490    -0.3840    -1.0860 c3         1 1LU      -0.079600
      8 CD2         -2.3920    -0.3490     1.3300 c3         1 1LU      -0.079600
      9 OXT          2.1090    -1.4010    -0.0520 o          1 1LU      -0.725000
     10 HOS          1.3170     1.9300    -0.1390 ho         1 1LU       0.471000
     11 HA           0.3760    -0.0160     1.3980 h1         1 1LU       0.028700
     12 HB1         -0.4620     0.0050    -1.5320 hc         1 1LU       0.039200
     13 HB2         -0.5440    -1.3700    -0.4450 hc         1 1LU       0.039200
     14 HG          -2.0840     1.2300    -0.0790 hc         1 1LU       0.051700
     15 HD11        -2.8380    -0.0110    -2.0900 hc         1 1LU       0.019200
     16 HD12        -3.0310    -1.4760    -1.1280 hc         1 1LU       0.019200
     17 HD13        -4.0650    -0.0810    -0.8270 hc         1 1LU       0.019200
     18 HD21        -1.7150     0.0440     2.0890 hc         1 1LU       0.019200
     19 HD22        -3.4020    -0.0410     1.6050 hc         1 1LU       0.019200
     20 HD23        -2.3530    -1.4400     1.3860 hc         1 1LU       0.019200
@<TRIPOS>BOND
     1     1     2 1   
     2     1    10 1   
     3     2     3 1   
     4     2     5 1   
     5     2    11 1   
     6     3     4 1   
     7     3     9 1   
     8     5     6 1   
     9     5    12 1   
    10     5    13 1   
    11     6     7 1   
    12     6     8 1   
    13     6    14 1   
    14     7    15 1   
    15     7    16 1   
    16     7    17 1   
    17     8    18 1   
    18     8    19 1   
    19     8    20 1   
@<TRIPOS>SUBSTRUCTURE
     1 1LU         1 TEMP              0 ****  ****    0 ROOT
