@<TRIPOS>MOLECULE
1LW
   26    28     1     0     0
SMALL
No Charge or Current Charge


@<TRIPOS>ATOM
      1 C01         -2.5040     1.3460     0.0090 cc         1 1LW      -0.157200
      2 C02         -3.5140     0.3980    -0.0040 cd         1 1LW      -0.175400
      3 S03         -2.8980    -1.2820    -0.0110 ss         1 1LW      -0.146900
      4 C04         -1.2380    -0.6490     0.0060 ca         1 1LW       0.434300
      5 C05         -1.1870     0.7280     0.0130 ca         1 1LW      -0.200800
      6 C06          0.0590     1.3620     0.0240 ca         1 1LW       0.389000
      7 C07          1.2180     0.5610     0.0370 ca         1 1LW      -0.217300
      8 C08          1.0480    -0.8460     0.0160 ca         1 1LW       0.410300
      9 N09         -0.1600    -1.4490     0.0050 nb         1 1LW      -0.683000
     10 C10          2.2370    -1.8100     0.0200 c6         1 1LW      -0.131700
     11 C11          3.5700    -1.1400    -0.3810 c6         1 1LW      -0.074400
     12 C12          3.7530     0.1830     0.3880 c6         1 1LW      -0.072400
     13 C13          2.6280     1.1850     0.0380 c6         1 1LW      -0.014100
     14 N14          0.1400     2.7290     0.0140 nv         1 1LW      -1.091000
     15 H011        -2.7010     2.4160     0.0230 ha         1 1LW       0.194000
     16 H021        -4.5850     0.5780    -0.0060 h4         1 1LW       0.216000
     17 H101         2.3350    -2.2360     1.0280 hc         1 1LW       0.063200
     18 H102         2.0390    -2.6550    -0.6520 hc         1 1LW       0.063200
     19 H112         4.4090    -1.8190    -0.1750 hc         1 1LW       0.044200
     20 H111         3.5800    -0.9440    -1.4630 hc         1 1LW       0.044200
     21 H121         3.7490    -0.0160     1.4690 hc         1 1LW       0.043200
     22 H122         4.7310     0.6250     0.1550 hc         1 1LW       0.043200
     23 H132         2.8270     1.6100    -0.9560 hc         1 1LW       0.038700
     24 H131         2.6770     2.0230     0.7470 hc         1 1LW       0.038700
     25 H142        -0.6910     3.2680    -0.2130 hn         1 1LW       0.471000
     26 H141         1.0370     3.1690    -0.1690 hn         1 1LW       0.471000
@<TRIPOS>BOND
     1     1     2 2   
     2     1     5 1   
     3     1    15 1   
     4     2     3 1   
     5     2    16 1   
     6     3     4 1   
     7     4     5 ar  
     8     4     9 ar  
     9     5     6 ar  
    10     6     7 ar  
    11     6    14 1   
    12     7     8 ar  
    13     7    13 1   
    14     8     9 ar  
    15     8    10 1   
    16    10    11 1   
    17    10    17 1   
    18    10    18 1   
    19    11    12 1   
    20    11    19 1   
    21    11    20 1   
    22    12    13 1   
    23    12    21 1   
    24    12    22 1   
    25    13    23 1   
    26    13    24 1   
    27    14    25 1   
    28    14    26 1   
@<TRIPOS>SUBSTRUCTURE
     1 1LW         1 TEMP              0 ****  ****    0 ROOT
