@<TRIPOS>MOLECULE
1LW
   26    28     1     0     0
SMALL
bcc


@<TRIPOS>ATOM
      1 C01         -2.4900     1.3170     0.0040 cc         1 1LW      -0.107200
      2 C02         -3.4590     0.3760     0.0070 cd         1 1LW      -0.125400
      3 S03         -2.8350    -1.2410     0.0130 ss         1 1LW      -0.146900
      4 C04         -1.1960    -0.6470     0.0150 ca         1 1LW       0.499600
      5 C05         -1.1730     0.7490     0.0080 ca         1 1LW      -0.266100
      6 C06          0.0920     1.3690     0.0050 ca         1 1LW       0.250600
      7 C07          1.2240     0.5360     0.0360 ca         1 1LW      -0.282600
      8 C08          1.0460    -0.8520     0.0190 ca         1 1LW       0.475600
      9 N09         -0.1470    -1.4480     0.0090 nb         1 1LW      -0.683000
     10 C10          2.2280    -1.7850     0.0180 c6         1 1LW      -0.131700
     11 C11          3.5270    -1.1090    -0.3940 c6         1 1LW      -0.074400
     12 C12          3.7070     0.1760     0.3950 c6         1 1LW      -0.072400
     13 C13          2.5960     1.1640     0.0630 c6         1 1LW      -0.014100
     14 N14          0.2020     2.7220     0.0170 nv         1 1LW      -0.842200
     15 H011        -2.7050     2.3770     0.0050 ha         1 1LW       0.144000
     16 H021        -4.5260     0.5360     0.0080 h4         1 1LW       0.166000
     17 H101         2.3390    -2.2020     1.0260 hc         1 1LW       0.063200
     18 H102         2.0000    -2.6310    -0.6330 hc         1 1LW       0.063200
     19 H112         4.3650    -1.7900    -0.2300 hc         1 1LW       0.044200
     20 H111         3.5090    -0.8840    -1.4650 hc         1 1LW       0.044200
     21 H121         3.6930    -0.0510     1.4660 hc         1 1LW       0.043200
     22 H122         4.6750     0.6350     0.1850 hc         1 1LW       0.043200
     23 H132         2.8040     1.6210    -0.9120 hc         1 1LW       0.038700
     24 H131         2.6120     1.9840     0.7870 hc         1 1LW       0.038700
     25 H142        -0.6030     3.2710    -0.2320 hn         1 1LW       0.415800
     26 H141         1.0740     3.1410    -0.2590 hn         1 1LW       0.415800
@<TRIPOS>BOND
     1     1     2 2   
     2     1     5 1   
     3     1    15 1   
     4     2     3 1   
     5     2    16 1   
     6     3     4 1   
     7     4     5 ar  
     8     4     9 ar  
     9     5     6 ar  
    10     6     7 ar  
    11     6    14 1   
    12     7     8 ar  
    13     7    13 1   
    14     8     9 ar  
    15     8    10 1   
    16    10    11 1   
    17    10    17 1   
    18    10    18 1   
    19    11    12 1   
    20    11    19 1   
    21    11    20 1   
    22    12    13 1   
    23    12    21 1   
    24    12    22 1   
    25    13    23 1   
    26    13    24 1   
    27    14    25 1   
    28    14    26 1   
@<TRIPOS>SUBSTRUCTURE
     1 1LW         1 TEMP              0 ****  ****    0 ROOT
