@<TRIPOS>MOLECULE
1LX
   17    18     1     0     0
SMALL
abcg2


@<TRIPOS>ATOM
      1 C01         30.1560    91.5280    48.6690 cc         1 1LX      -0.059000
      2 C02         31.4930    91.1270    48.8670 cc         1 1LX      -0.234000
      3 C03         32.2540    90.6780    47.8120 cd         1 1LX       0.293000
      4 N04         31.6670    90.6330    46.5710 na         1 1LX       0.093100
      5 C05         32.1910    90.2460    45.3460 cc         1 1LX      -0.297100
      6 C06         31.1630    90.3980    44.4530 cd         1 1LX      -0.021400
      7 N07         30.0270    90.8630    45.0560 nd         1 1LX      -0.303600
      8 C08         30.3340    91.0090    46.3450 cd         1 1LX      -0.039000
      9 C09         29.5670    91.4700    47.4300 cd         1 1LX      -0.125000
     10 N10         33.5810    90.3350    47.8870 nv         1 1LX      -1.074000
     11 H1          29.5860    91.8780    49.5200 ha         1 1LX       0.121000
     12 H2          31.9420    91.1620    49.8500 ha         1 1LX       0.126000
     13 H3          33.2080    89.9240    45.2190 h4         1 1LX       0.227000
     14 H4          31.1960    90.1930    43.3940 h4         1 1LX       0.225000
     15 H5          28.5420    91.7660    47.2600 ha         1 1LX       0.144000
     16 H6          33.9290    90.2220    48.8280 hn         1 1LX       0.464000
     17 H7          33.8910    89.5910    47.2760 hn         1 1LX       0.464000
@<TRIPOS>BOND
     1     1     2 1   
     2     1     9 2   
     3     1    11 1   
     4     2     3 2   
     5     2    12 1   
     6     3     4 1   
     7     3    10 1   
     8     4     5 1   
     9     4     8 1   
    10     5     6 2   
    11     5    13 1   
    12     6     7 1   
    13     6    14 1   
    14     7     8 2   
    15     8     9 1   
    16     9    15 1   
    17    10    16 1   
    18    10    17 1   
@<TRIPOS>SUBSTRUCTURE
     1 1LX         1 TEMP              0 ****  ****    0 ROOT
