@<TRIPOS>MOLECULE
1LX
   17    18     1     0     0
SMALL
No Charge or Current Charge


@<TRIPOS>ATOM
      1 C01         30.1250    91.5410    48.6750 cc         1 1LX      -0.059000
      2 C02         31.4880    91.1260    48.8510 cc         1 1LX      -0.234000
      3 C03         32.2720    90.6640    47.8090 cd         1 1LX       0.293000
      4 N04         31.6600    90.6210    46.5300 na         1 1LX       0.093100
      5 C05         32.2020    90.2190    45.3370 cc         1 1LX      -0.297100
      6 C06         31.1450    90.3920    44.4440 cd         1 1LX      -0.021400
      7 N07         29.9820    90.8870    45.0550 nd         1 1LX      -0.303600
      8 C08         30.3690    91.0110    46.3610 cd         1 1LX      -0.039000
      9 C09         29.5470    91.4880    47.4290 cd         1 1LX      -0.125000
     10 N10         33.5750    90.2560    47.9590 nv         1 1LX      -1.074000
     11 H1          29.5610    91.8930    49.5340 ha         1 1LX       0.121000
     12 H2          31.9050    91.1820    49.8500 ha         1 1LX       0.126000
     13 H3          33.2190    89.8690    45.2060 h4         1 1LX       0.227000
     14 H4          31.1590    90.1850    43.3750 h4         1 1LX       0.225000
     15 H5          28.5190    91.7940    47.2660 ha         1 1LX       0.144000
     16 H6          33.9580    90.1410    48.8960 hn         1 1LX       0.464000
     17 H7          34.0390    89.7530    47.2060 hn         1 1LX       0.464000
@<TRIPOS>BOND
     1     1     2 1   
     2     1     9 2   
     3     1    11 1   
     4     2     3 2   
     5     2    12 1   
     6     3     4 1   
     7     3    10 1   
     8     4     5 1   
     9     4     8 1   
    10     5     6 2   
    11     5    13 1   
    12     6     7 1   
    13     6    14 1   
    14     7     8 2   
    15     8     9 1   
    16     9    15 1   
    17    10    16 1   
    18    10    17 1   
@<TRIPOS>SUBSTRUCTURE
     1 1LX         1 TEMP              0 ****  ****    0 ROOT
