@<TRIPOS>MOLECULE
1LY
   17    18     1     0     0
SMALL
bcc


@<TRIPOS>ATOM
      1 CAC          1.5370     1.2030     0.0830 cc         1 1LY      -0.164000
      2 CAD          0.2570     1.6610     0.0390 cd         1 1LY      -0.056000
      3 CAI         -0.8110     0.7410    -0.0020 cd         1 1LY      -0.060300
      4 NAG         -2.1220     0.9350    -0.0410 nc         1 1LY      -0.284600
      5 CAB         -2.6600    -0.3040    -0.0670 cc         1 1LY       0.010600
      6 CAE         -1.6920    -1.2790    -0.0450 cd         1 1LY      -0.240100
      7 NAJ         -0.5050    -0.6020    -0.0030 na         1 1LY       0.062700
      8 CAF          0.7810    -1.0780     0.0250 cd         1 1LY      -0.175300
      9 CAH          1.8230    -0.1970     0.0780 cc         1 1LY       0.116600
     10 NAA          3.1380    -0.6160     0.1890 nv         1 1LY      -0.802200
     11 H1           2.3610     1.9050     0.1240 ha         1 1LY       0.142000
     12 H2           0.0380     2.7190     0.0400 ha         1 1LY       0.161000
     13 H3          -3.7280    -0.4590    -0.1000 h4         1 1LY       0.174000
     14 H4          -1.7440    -2.3540    -0.0560 h4         1 1LY       0.179000
     15 H5           0.9010    -2.1510     0.0130 h4         1 1LY       0.161000
     16 H6           3.8070    -0.0030    -0.2500 hn         1 1LY       0.388800
     17 H7           3.3040    -1.5730    -0.0820 hn         1 1LY       0.388800
@<TRIPOS>BOND
     1     1     2 2   
     2     1     9 1   
     3     1    11 1   
     4     2     3 1   
     5     2    12 1   
     6     3     4 2   
     7     3     7 1   
     8     4     5 1   
     9     5     6 2   
    10     5    13 1   
    11     6     7 1   
    12     6    14 1   
    13     7     8 1   
    14     8     9 2   
    15     8    15 1   
    16     9    10 1   
    17    10    16 1   
    18    10    17 1   
@<TRIPOS>SUBSTRUCTURE
     1 1LY         1 TEMP              0 ****  ****    0 ROOT
