@<TRIPOS>MOLECULE
1LY
   17    18     1     0     0
SMALL
No Charge or Current Charge


@<TRIPOS>ATOM
      1 CAC          1.5390     1.2100     0.0530 cc         1 1LY      -0.146000
      2 CAD          0.2580     1.7210     0.0320 cd         1 1LY      -0.038000
      3 CAI         -0.7830     0.7480    -0.0010 cd         1 1LY      -0.111000
      4 NAG         -2.0880     0.9430    -0.0260 nc         1 1LY      -0.284600
      5 CAB         -2.6450    -0.3220    -0.0510 cc         1 1LY      -0.039400
      6 CAE         -1.6830    -1.3160    -0.0410 cd         1 1LY      -0.290100
      7 NAJ         -0.5250    -0.5910    -0.0090 na         1 1LY       0.164100
      8 CAF          0.7530    -1.1450     0.0120 cd         1 1LY      -0.208000
      9 CAH          1.7810    -0.2140     0.0430 cc         1 1LY       0.255000
     10 NAA          3.0860    -0.6050     0.0660 nv         1 1LY      -1.051000
     11 H1           2.3860     1.8880     0.0790 ha         1 1LY       0.124000
     12 H2           0.0570     2.7880     0.0390 ha         1 1LY       0.143000
     13 H3          -3.7260    -0.4380    -0.0750 h4         1 1LY       0.224000
     14 H4          -1.7380    -2.3990    -0.0530 h4         1 1LY       0.229000
     15 H5           0.8590    -2.2210     0.0040 h4         1 1LY       0.143000
     16 H6           3.8260     0.0850    -0.0530 hn         1 1LY       0.444000
     17 H7           3.3260    -1.5850    -0.0750 hn         1 1LY       0.444000
@<TRIPOS>BOND
     1     1     2 2   
     2     1     9 1   
     3     1    11 1   
     4     2     3 1   
     5     2    12 1   
     6     3     4 2   
     7     3     7 1   
     8     4     5 1   
     9     5     6 2   
    10     5    13 1   
    11     6     7 1   
    12     6    14 1   
    13     7     8 1   
    14     8     9 2   
    15     8    15 1   
    16     9    10 1   
    17    10    16 1   
    18    10    17 1   
@<TRIPOS>SUBSTRUCTURE
     1 1LY         1 TEMP              0 ****  ****    0 ROOT
