@<TRIPOS>MOLECULE
1LZ
   19    20     1     0     0
SMALL
bcc


@<TRIPOS>ATOM
      1 C01          2.6260     0.7850    -0.2540 cc         1 1LZ      -0.297800
      2 C02          3.0980    -0.4910    -0.1290 cd         1 1LZ      -0.106100
      3 N03          2.0650    -1.3540     0.1010 na         1 1LZ      -0.168400
      4 C04          0.8970    -0.6560     0.1300 ca         1 1LZ      -0.168500
      5 C05          1.2120     0.7050    -0.0910 ca         1 1LZ       0.408100
      6 N06          0.2810     1.6650    -0.1210 nb         1 1LZ      -0.625000
      7 C07         -0.9650     1.2800     0.0660 ca         1 1LZ       0.403200
      8 C08         -1.3760    -0.0470     0.2930 ca         1 1LZ      -0.194600
      9 C09         -0.4210    -1.0470     0.3220 ca         1 1LZ      -0.088000
     10 C10         -2.8350    -0.3500     0.4650 c3         1 1LZ       0.191700
     11 O11         -3.4800    -0.1830    -0.7820 oh         1 1LZ      -0.590800
     12 H1           3.2150     1.6690    -0.4400 ha         1 1LZ       0.167000
     13 H2           4.1090    -0.8590    -0.1890 h4         1 1LZ       0.164000
     14 H3           2.1620    -2.3480     0.2220 hn         1 1LZ       0.300700
     15 H4          -1.7170     2.0640     0.0490 h4         1 1LZ       0.020100
     16 H5          -0.6930    -2.0820     0.4910 ha         1 1LZ       0.135000
     17 H6          -2.9510    -1.3710     0.8480 h1         1 1LZ       0.023700
     18 H7          -3.2600     0.3210     1.2210 h1         1 1LZ       0.023700
     19 H8          -4.4280    -0.2500    -0.6340 ho         1 1LZ       0.402000
@<TRIPOS>BOND
     1     1     2 2   
     2     1     5 1   
     3     1    12 1   
     4     2     3 1   
     5     2    13 1   
     6     3     4 1   
     7     3    14 1   
     8     4     5 ar  
     9     4     9 ar  
    10     5     6 ar  
    11     6     7 ar  
    12     7     8 ar  
    13     7    15 1   
    14     8     9 ar  
    15     8    10 1   
    16     9    16 1   
    17    10    11 1   
    18    10    17 1   
    19    10    18 1   
    20    11    19 1   
@<TRIPOS>SUBSTRUCTURE
     1 1LZ         1 TEMP              0 ****  ****    0 ROOT
