@<TRIPOS>MOLECULE
1LZ
   19    20     1     0     0
SMALL
No Charge or Current Charge


@<TRIPOS>ATOM
      1 C01          2.6390     0.7720    -0.1950 cc         1 1LZ      -0.347800
      2 C02          3.1290    -0.5310    -0.1540 cd         1 1LZ      -0.156100
      3 N03          2.0390    -1.4210     0.0240 na         1 1LZ      -0.218700
      4 C04          0.9050    -0.6220     0.0880 ca         1 1LZ      -0.103200
      5 C05          1.2240     0.7020    -0.0410 ca         1 1LZ       0.342800
      6 N06          0.3560     1.7260    -0.0220 nb         1 1LZ      -0.625000
      7 C07         -0.9470     1.3750     0.1410 ca         1 1LZ       0.337900
      8 C08         -1.3860     0.0330     0.2840 ca         1 1LZ      -0.129300
      9 C09         -0.4300    -1.0090     0.2570 ca         1 1LZ      -0.070000
     10 C10         -2.8610    -0.2700     0.4680 c3         1 1LZ       0.214900
     11 O11         -3.4750    -0.5090    -0.8010 oh         1 1LZ      -0.653000
     12 H1           3.2290     1.6750    -0.3220 ha         1 1LZ       0.217000
     13 H2           4.1550    -0.8880    -0.2370 h4         1 1LZ       0.214000
     14 H3           2.0800    -2.4350     0.0920 hn         1 1LZ       0.351000
     15 H4          -1.6640     2.1960     0.1580 h4         1 1LZ       0.020100
     16 H5          -0.7150    -2.0540     0.3610 ha         1 1LZ       0.117000
     17 H6          -2.9730    -1.1500     1.1170 h1         1 1LZ       0.023700
     18 H7          -3.3470     0.5760     0.9730 h1         1 1LZ       0.023700
     19 H8          -4.4190    -0.7140    -0.6240 ho         1 1LZ       0.441000
@<TRIPOS>BOND
     1     1     2 2   
     2     1     5 1   
     3     1    12 1   
     4     2     3 1   
     5     2    13 1   
     6     3     4 1   
     7     3    14 1   
     8     4     5 ar  
     9     4     9 ar  
    10     5     6 ar  
    11     6     7 ar  
    12     7     8 ar  
    13     7    15 1   
    14     8     9 ar  
    15     8    10 1   
    16     9    16 1   
    17    10    11 1   
    18    10    17 1   
    19    10    18 1   
    20    11    19 1   
@<TRIPOS>SUBSTRUCTURE
     1 1LZ         1 TEMP              0 ****  ****    0 ROOT
