@<TRIPOS>MOLECULE
1M0
   75    81     1     0     0
SMALL
bcc


@<TRIPOS>ATOM
      1 CBK          3.3030    -1.8860    -0.0660 ca         1 1M0      -0.105000
      2 CBL          3.3190    -2.8430     0.9410 ca         1 1M0      -0.130500
      3 CBM          4.5220    -3.3910     1.3610 ca         1 1M0      -0.115000
      4 CBN          5.7100    -2.9820     0.7670 ca         1 1M0      -0.130500
      5 CBO          5.6910    -2.0270    -0.2400 ca         1 1M0      -0.105000
      6 CBI          4.4880    -1.4680    -0.6620 ca         1 1M0      -0.123300
      7 CBH          4.4750    -0.4050    -1.7310 c3         1 1M0       0.100600
      8 NBC          4.9050     0.8860    -1.2140 na         1 1M0      -0.144300
      9 CBB          6.1940     1.3600    -1.2550 ca         1 1M0      -0.078200
     10 CBG          7.3250     0.9470    -1.9520 ca         1 1M0      -0.135000
     11 CBF          8.4820     1.6820    -1.7580 ca         1 1M0      -0.113000
     12 CBE          8.5110     2.7910    -0.8980 ca         1 1M0      -0.154000
     13 CBD          7.3830     3.1950    -0.2070 ca         1 1M0      -0.066000
     14 CBA          6.2100     2.4630    -0.3870 ca         1 1M0       0.070400
     15 NAZ          4.9670     2.6370     0.1690 nc         1 1M0      -0.567100
     16 CAY          4.2260     1.6880    -0.3370 cd         1 1M0       0.477400
     17 CAV          2.8140     1.4820    -0.0010 ca         1 1M0      -0.145900
     18 CAU          2.4300     1.4020     1.3390 ca         1 1M0      -0.062000
     19 CAT          1.1120     1.1840     1.6840 ca         1 1M0      -0.196500
     20 CAW          1.8370     1.3650    -0.9810 ca         1 1M0      -0.062000
     21 CAX          0.5070     1.1490    -0.6490 ca         1 1M0      -0.196500
     22 CAS          0.1410     1.0450     0.6910 ca         1 1M0       0.153100
     23 OAR         -1.1150     0.8160     1.1160 os         1 1M0      -0.324900
     24 CAQ         -2.1450     0.6800     0.1600 c3         1 1M0       0.121400
     25 CAJ         -3.4360     0.4080     0.9280 c3         1 1M0       0.065000
     26 CBJ         -3.8400     1.5480     1.8710 c3         1 1M0      -0.051200
     27 CBP         -5.1780     1.3290     2.5060 c2         1 1M0      -0.172200
     28 CBQ         -5.3590     1.0700     3.7960 c2         1 1M0      -0.215000
     29 NAI         -4.4850     0.0700    -0.0220 na         1 1M0      -0.150300
     30 CAE         -5.0090     0.8970    -0.9950 ca         1 1M0      -0.079200
     31 CAF         -4.8340     2.2450    -1.3000 ca         1 1M0      -0.135000
     32 CAA         -5.5460     2.7450    -2.3760 ca         1 1M0      -0.113000
     33 CAB         -6.4060     1.9360    -3.1310 ca         1 1M0      -0.152000
     34 CAC         -6.5730     0.5980    -2.8300 ca         1 1M0      -0.066000
     35 CAD         -5.8610     0.0760    -1.7510 ca         1 1M0       0.067400
     36 NAG         -5.8440    -1.2020    -1.2570 nc         1 1M0      -0.565100
     37 CAH         -5.0260    -1.1720    -0.2410 cd         1 1M0       0.472400
     38 CAK         -4.7180    -2.3640     0.5630 ca         1 1M0      -0.119900
     39 CAL         -4.3300    -3.5300    -0.0970 ca         1 1M0      -0.099000
     40 CAM         -4.0630    -4.6840     0.6230 ca         1 1M0      -0.133500
     41 CAN         -4.1880    -4.6880     2.0070 ca         1 1M0      -0.113000
     42 CAO         -4.5880    -3.5340     2.6670 ca         1 1M0      -0.133500
     43 CAP         -4.8540    -2.3760     1.9510 ca         1 1M0      -0.099000
     44 H1           2.3590    -1.4640    -0.3890 ha         1 1M0       0.134000
     45 H2           2.3890    -3.1590     1.3960 ha         1 1M0       0.133500
     46 H3           4.5360    -4.1370     2.1440 ha         1 1M0       0.132000
     47 H4           6.6520    -3.4130     1.0820 ha         1 1M0       0.133500
     48 H5           6.6230    -1.7220    -0.7030 ha         1 1M0       0.134000
     49 H6           5.1460    -0.6660    -2.5490 h1         1 1M0       0.065200
     50 H7           3.4830    -0.3110    -2.1680 h1         1 1M0       0.065200
     51 H8           7.3130     0.0970    -2.6220 ha         1 1M0       0.132000
     52 H9           9.3830     1.3960    -2.2830 ha         1 1M0       0.129000
     53 H10          9.4370     3.3380    -0.7760 ha         1 1M0       0.131000
     54 H11          7.4060     4.0510     0.4550 ha         1 1M0       0.146000
     55 H12          3.1760     1.4920     2.1170 ha         1 1M0       0.144500
     56 H13          0.8250     1.1090     2.7250 ha         1 1M0       0.144500
     57 H14          2.0970     1.4600    -2.0280 ha         1 1M0       0.144500
     58 H15         -0.2190     1.0710    -1.4460 ha         1 1M0       0.144500
     59 H16         -2.2270     1.5880    -0.4480 h1         1 1M0       0.050700
     60 H17         -1.9440    -0.1590    -0.5160 h1         1 1M0       0.050700
     61 H18         -3.2670    -0.4820     1.5350 h1         1 1M0       0.086700
     62 H19         -3.0740     1.6280     2.6430 hc         1 1M0       0.062700
     63 H20         -3.8410     2.4990     1.3320 hc         1 1M0       0.062700
     64 H21         -6.0460     1.3930     1.8550 ha         1 1M0       0.131000
     65 H23         -4.5250     1.0020     4.4850 ha         1 1M0       0.114000
     66 H24         -6.3470     0.9180     4.2100 ha         1 1M0       0.114000
     67 H26         -4.1760     2.8950    -0.7400 ha         1 1M0       0.135000
     68 H27         -5.4330     3.7890    -2.6390 ha         1 1M0       0.131000
     69 H28         -6.9430     2.3710    -3.9640 ha         1 1M0       0.133000
     70 H29         -7.2340    -0.0330    -3.4100 ha         1 1M0       0.147000
     71 H30         -4.2310    -3.5280    -1.1740 ha         1 1M0       0.143500
     72 H31         -3.7540    -5.5810     0.1040 ha         1 1M0       0.134500
     73 H32         -3.9770    -5.5890     2.5680 ha         1 1M0       0.133000
     74 H33         -4.7000    -3.5340     3.7430 ha         1 1M0       0.134500
     75 H34         -5.1880    -1.4880     2.4730 ha         1 1M0       0.143500
@<TRIPOS>BOND
     1     1     2 ar  
     2     1     6 ar  
     3     1    44 1   
     4     2     3 ar  
     5     2    45 1   
     6     3     4 ar  
     7     3    46 1   
     8     4     5 ar  
     9     4    47 1   
    10     5     6 ar  
    11     5    48 1   
    12     6     7 1   
    13     7     8 1   
    14     7    49 1   
    15     7    50 1   
    16     8     9 1   
    17     8    16 1   
    18     9    10 ar  
    19     9    14 ar  
    20    10    11 ar  
    21    10    51 1   
    22    11    12 ar  
    23    11    52 1   
    24    12    13 ar  
    25    12    53 1   
    26    13    14 ar  
    27    13    54 1   
    28    14    15 1   
    29    15    16 2   
    30    16    17 1   
    31    17    18 ar  
    32    17    20 ar  
    33    18    19 ar  
    34    18    55 1   
    35    19    22 ar  
    36    19    56 1   
    37    20    21 ar  
    38    20    57 1   
    39    21    22 ar  
    40    21    58 1   
    41    22    23 1   
    42    23    24 1   
    43    24    25 1   
    44    24    59 1   
    45    24    60 1   
    46    25    26 1   
    47    25    29 1   
    48    25    61 1   
    49    26    27 1   
    50    26    62 1   
    51    26    63 1   
    52    27    28 2   
    53    27    64 1   
    54    28    65 1   
    55    28    66 1   
    56    29    30 1   
    57    29    37 1   
    58    30    31 ar  
    59    30    35 ar  
    60    31    32 ar  
    61    31    67 1   
    62    32    33 ar  
    63    32    68 1   
    64    33    34 ar  
    65    33    69 1   
    66    34    35 ar  
    67    34    70 1   
    68    35    36 1   
    69    36    37 2   
    70    37    38 1   
    71    38    39 ar  
    72    38    43 ar  
    73    39    40 ar  
    74    39    71 1   
    75    40    41 ar  
    76    40    72 1   
    77    41    42 ar  
    78    41    73 1   
    79    42    43 ar  
    80    42    74 1   
    81    43    75 1   
@<TRIPOS>SUBSTRUCTURE
     1 1M0         1 TEMP              0 ****  ****    0 ROOT
