@<TRIPOS>MOLECULE
1M0
   75    81     1     0     0
SMALL
No Charge or Current Charge


@<TRIPOS>ATOM
      1 CBK          2.9560    -1.7050    -1.8940 ca         1 1M0      -0.087000
      2 CBL          2.3150    -2.7580    -1.2200 ca         1 1M0      -0.112500
      3 CBM          2.8620    -3.2690    -0.0300 ca         1 1M0      -0.097000
      4 CBN          4.0520    -2.7270     0.4820 ca         1 1M0      -0.112500
      5 CBO          4.6940    -1.6730    -0.1910 ca         1 1M0      -0.087000
      6 CBI          4.1450    -1.1500    -1.3810 ca         1 1M0      -0.123300
      7 CBH          4.8250     0.0110    -2.1040 c3         1 1M0       0.129900
      8 NBC          5.2030     1.1340    -1.2190 na         1 1M0      -0.173600
      9 CBB          6.4800     1.6150    -1.0740 ca         1 1M0      -0.078200
     10 CBG          7.6070     1.4340    -1.8950 ca         1 1M0      -0.117000
     11 CBF          8.8130     2.0520    -1.5080 ca         1 1M0      -0.095000
     12 CBE          8.8670     2.8300    -0.3300 ca         1 1M0      -0.136000
     13 CBD          7.7130     2.9970     0.4650 ca         1 1M0      -0.048000
     14 CBA          6.5220     2.3740     0.0630 ca         1 1M0       0.070400
     15 NAZ          5.2950     2.4250     0.6960 nc         1 1M0      -0.567100
     16 CAY          4.5130     1.6720    -0.1080 cd         1 1M0       0.477400
     17 CAV          3.0890     1.4440     0.2220 ca         1 1M0      -0.145900
     18 CAU          2.6650     1.4150     1.5680 ca         1 1M0      -0.044000
     19 CAT          1.3110     1.2140     1.8860 ca         1 1M0      -0.178500
     20 CAW          2.1170     1.3330    -0.7960 ca         1 1M0      -0.044000
     21 CAX          0.7630     1.1320    -0.4780 ca         1 1M0      -0.178500
     22 CAS          0.3570     1.0620     0.8700 ca         1 1M0       0.153100
     23 OAR         -0.9550     0.8580     1.2430 os         1 1M0      -0.348100
     24 CAQ         -2.0050     0.6660     0.2770 c3         1 1M0       0.144600
     25 CAJ         -3.3350     0.4290     1.0350 c3         1 1M0       0.094300
     26 CBJ         -3.7780     1.6520     1.8880 c3         1 1M0      -0.051200
     27 CBP         -5.1020     1.4530     2.6040 c2         1 1M0      -0.222200
     28 CBQ         -5.2530     1.3370     3.9330 c2         1 1M0      -0.315000
     29 NAI         -4.4010    -0.0820     0.1320 na         1 1M0      -0.179600
     30 CAE         -4.8150     0.5200    -1.0360 ca         1 1M0      -0.079200
     31 CAF         -4.6240     1.8350    -1.5010 ca         1 1M0      -0.117000
     32 CAA         -5.1680     2.1860    -2.7520 ca         1 1M0      -0.095000
     33 CAB         -5.8860     1.2340    -3.5080 ca         1 1M0      -0.134000
     34 CAC         -6.0630    -0.0750    -3.0140 ca         1 1M0      -0.048000
     35 CAD         -5.5130    -0.4040    -1.7650 ca         1 1M0       0.067400
     36 NAG         -5.5810    -1.6250    -1.1250 nc         1 1M0      -0.565100
     37 CAH         -4.9060    -1.4010     0.0210 cd         1 1M0       0.472400
     38 CAK         -4.7120    -2.4970     0.9990 ca         1 1M0      -0.119900
     39 CAL         -4.5720    -3.8310     0.5510 ca         1 1M0      -0.081000
     40 CAM         -4.4310    -4.8860     1.4690 ca         1 1M0      -0.115500
     41 CAN         -4.4510    -4.6260     2.8480 ca         1 1M0      -0.095000
     42 CAO         -4.6280    -3.3120     3.3070 ca         1 1M0      -0.115500
     43 CAP         -4.7680    -2.2570     2.3900 ca         1 1M0      -0.081000
     44 H1           2.5210    -1.3160    -2.8120 ha         1 1M0       0.116000
     45 H2           1.3940    -3.1780    -1.6180 ha         1 1M0       0.115500
     46 H3           2.3650    -4.0830     0.4920 ha         1 1M0       0.114000
     47 H4           4.4780    -3.1230     1.4010 ha         1 1M0       0.115500
     48 H5           5.6150    -1.2610     0.2160 ha         1 1M0       0.116000
     49 H6           5.7220    -0.3800    -2.5980 h1         1 1M0       0.065200
     50 H7           4.1690     0.3990    -2.8930 h1         1 1M0       0.065200
     51 H8           7.5620     0.8410    -2.8050 ha         1 1M0       0.114000
     52 H9           9.7050     1.9300    -2.1200 ha         1 1M0       0.111000
     53 H10          9.8000     3.3060    -0.0360 ha         1 1M0       0.113000
     54 H11          7.7440     3.5990     1.3700 ha         1 1M0       0.128000
     55 H12          3.3880     1.5250     2.3740 ha         1 1M0       0.126500
     56 H13          1.0000     1.1730     2.9260 ha         1 1M0       0.126500
     57 H14          2.4050     1.4090    -1.8420 ha         1 1M0       0.126500
     58 H15          0.0480     1.0380    -1.2890 ha         1 1M0       0.126500
     59 H16         -2.0940     1.5410    -0.3770 h1         1 1M0       0.050700
     60 H17         -1.7890    -0.2120    -0.3470 h1         1 1M0       0.050700
     61 H18         -3.1140    -0.3740     1.7460 h1         1 1M0       0.086700
     62 H19         -2.9910     1.8630     2.6230 hc         1 1M0       0.062700
     63 H20         -3.8370     2.5470     1.2610 hc         1 1M0       0.062700
     64 H21         -5.9740     1.4220     1.9440 ha         1 1M0       0.181000
     65 H23         -4.4020     1.3720     4.6150 ha         1 1M0       0.164000
     66 H24         -6.2370     1.2030     4.3860 ha         1 1M0       0.164000
     67 H26         -4.0740     2.5740    -0.9280 ha         1 1M0       0.117000
     68 H27         -5.0350     3.1950    -3.1370 ha         1 1M0       0.113000
     69 H28         -6.3040     1.5090    -4.4730 ha         1 1M0       0.115000
     70 H29         -6.6140    -0.8160    -3.5870 ha         1 1M0       0.129000
     71 H30         -4.5580    -4.0520    -0.5150 ha         1 1M0       0.125500
     72 H31         -4.3080    -5.9050     1.1100 ha         1 1M0       0.116500
     73 H32         -4.3450    -5.4430     3.5590 ha         1 1M0       0.115000
     74 H33         -4.6650    -3.1100     4.3760 ha         1 1M0       0.116500
     75 H34         -4.9380    -1.2530     2.7690 ha         1 1M0       0.125500
@<TRIPOS>BOND
     1     1     2 ar  
     2     1     6 ar  
     3     1    44 1   
     4     2     3 ar  
     5     2    45 1   
     6     3     4 ar  
     7     3    46 1   
     8     4     5 ar  
     9     4    47 1   
    10     5     6 ar  
    11     5    48 1   
    12     6     7 1   
    13     7     8 1   
    14     7    49 1   
    15     7    50 1   
    16     8     9 1   
    17     8    16 1   
    18     9    10 ar  
    19     9    14 ar  
    20    10    11 ar  
    21    10    51 1   
    22    11    12 ar  
    23    11    52 1   
    24    12    13 ar  
    25    12    53 1   
    26    13    14 ar  
    27    13    54 1   
    28    14    15 1   
    29    15    16 2   
    30    16    17 1   
    31    17    18 ar  
    32    17    20 ar  
    33    18    19 ar  
    34    18    55 1   
    35    19    22 ar  
    36    19    56 1   
    37    20    21 ar  
    38    20    57 1   
    39    21    22 ar  
    40    21    58 1   
    41    22    23 1   
    42    23    24 1   
    43    24    25 1   
    44    24    59 1   
    45    24    60 1   
    46    25    26 1   
    47    25    29 1   
    48    25    61 1   
    49    26    27 1   
    50    26    62 1   
    51    26    63 1   
    52    27    28 2   
    53    27    64 1   
    54    28    65 1   
    55    28    66 1   
    56    29    30 1   
    57    29    37 1   
    58    30    31 ar  
    59    30    35 ar  
    60    31    32 ar  
    61    31    67 1   
    62    32    33 ar  
    63    32    68 1   
    64    33    34 ar  
    65    33    69 1   
    66    34    35 ar  
    67    34    70 1   
    68    35    36 1   
    69    36    37 2   
    70    37    38 1   
    71    38    39 ar  
    72    38    43 ar  
    73    39    40 ar  
    74    39    71 1   
    75    40    41 ar  
    76    40    72 1   
    77    41    42 ar  
    78    41    73 1   
    79    42    43 ar  
    80    42    74 1   
    81    43    75 1   
@<TRIPOS>SUBSTRUCTURE
     1 1M0         1 TEMP              0 ****  ****    0 ROOT
