@<TRIPOS>MOLECULE
1M1
   37    41     1     0     0
SMALL
No Charge or Current Charge


@<TRIPOS>ATOM
      1 CAS          0.1310     3.1940    -0.8180 ca         1 1M1      -0.147000
      2 CAT          0.0870     4.3050     0.0400 ca         1 1M1      -0.073000
      3 CAU         -0.3560     4.1080     1.3570 ca         1 1M1      -0.151000
      4 CAV         -0.7370     2.8180     1.7660 ca         1 1M1       0.343900
      5 NAW         -0.6960     1.7450     0.9430 nb         1 1M1      -0.637000
      6 CAR         -0.2630     1.9280    -0.3360 ca         1 1M1       0.266300
      7 CAQ         -0.2190     0.6900    -1.2800 c6         1 1M1       0.341200
      8 NAE          0.5800    -0.4110    -0.7210 na         1 1M1      -0.179600
      9 CAD          1.9030    -0.3930    -0.3790 ca         1 1M1      -0.068200
     10 CAI          2.9170     0.4960    -0.7650 ca         1 1M1      -0.116000
     11 CAH          4.2150     0.2630    -0.2670 ca         1 1M1      -0.099000
     12 CAG          4.4620    -0.8360     0.5870 ca         1 1M1      -0.134000
     13 CAF          3.4130    -1.7100     0.9510 ca         1 1M1      -0.053000
     14 CAC          2.1270    -1.4620     0.4480 ca         1 1M1       0.082400
     15 NAB          0.9660    -2.1860     0.6910 nc         1 1M1      -0.575100
     16 CAA          0.0530    -1.4870    -0.0190 cd         1 1M1       0.513400
     17 CAJ         -1.3760    -1.7720    -0.0520 ca         1 1M1      -0.156900
     18 CAK         -1.9710    -2.8250     0.6720 ca         1 1M1      -0.028000
     19 CAL         -3.3590    -3.0280     0.5880 ca         1 1M1      -0.156000
     20 CAM         -4.1490    -2.1850    -0.2140 ca         1 1M1      -0.061000
     21 CAN         -3.5480    -1.1370    -0.9340 ca         1 1M1      -0.179000
     22 CAO         -2.1630    -0.9290    -0.8510 ca         1 1M1       0.318000
     23 NAP         -1.5660     0.1090    -1.5810 nu         1 1M1      -0.950200
     24 H1           0.4680     3.3110    -1.8450 ha         1 1M1       0.122000
     25 H2           0.3880     5.2920    -0.3070 ha         1 1M1       0.123000
     26 H3          -0.4070     4.9370     2.0570 ha         1 1M1       0.128000
     27 H4          -1.0860     2.6390     2.7820 h4         1 1M1       0.027100
     28 H5           0.2920     0.9880    -2.2090 h2         1 1M1       0.081700
     29 H6           2.7160     1.3350    -1.4270 ha         1 1M1       0.112000
     30 H7           5.0290     0.9310    -0.5430 ha         1 1M1       0.109000
     31 H8           5.4660    -1.0110     0.9680 ha         1 1M1       0.112000
     32 H9           3.5950    -2.5560     1.6090 ha         1 1M1       0.127000
     33 H10         -1.3650    -3.4800     1.2950 ha         1 1M1       0.136000
     34 H11         -3.8230    -3.8390     1.1450 ha         1 1M1       0.118000
     35 H12         -5.2230    -2.3450    -0.2780 ha         1 1M1       0.111000
     36 H13         -4.1610    -0.4900    -1.5540 ha         1 1M1       0.111000
     37 H14         -2.2120     0.6910    -2.1160 hn         1 1M1       0.480000
@<TRIPOS>BOND
     1     1     2 ar  
     2     1     6 ar  
     3     1    24 1   
     4     2     3 ar  
     5     2    25 1   
     6     3     4 ar  
     7     3    26 1   
     8     4     5 ar  
     9     4    27 1   
    10     5     6 ar  
    11     6     7 1   
    12     7     8 1   
    13     7    23 1   
    14     7    28 1   
    15     8     9 1   
    16     8    16 1   
    17     9    10 ar  
    18     9    14 ar  
    19    10    11 ar  
    20    10    29 1   
    21    11    12 ar  
    22    11    30 1   
    23    12    13 ar  
    24    12    31 1   
    25    13    14 ar  
    26    13    32 1   
    27    14    15 1   
    28    15    16 2   
    29    16    17 1   
    30    17    18 ar  
    31    17    22 ar  
    32    18    19 ar  
    33    18    33 1   
    34    19    20 ar  
    35    19    34 1   
    36    20    21 ar  
    37    20    35 1   
    38    21    22 ar  
    39    21    36 1   
    40    22    23 1   
    41    23    37 1   
@<TRIPOS>SUBSTRUCTURE
     1 1M1         1 TEMP              0 ****  ****    0 ROOT
