@<TRIPOS>MOLECULE
1M1
   37    41     1     0     0
SMALL
abcg2


@<TRIPOS>ATOM
      1 CAS         -0.1500     3.1390    -0.8110 ca         1 1M1      -0.147000
      2 CAT         -0.3740     4.1890     0.0690 ca         1 1M1      -0.073000
      3 CAU         -0.7170     3.8980     1.3790 ca         1 1M1      -0.151000
      4 CAV         -0.8170     2.5640     1.7520 ca         1 1M1       0.343900
      5 NAW         -0.6010     1.5570     0.9180 nb         1 1M1      -0.637000
      6 CAR         -0.2800     1.8420    -0.3380 ca         1 1M1       0.266300
      7 CAQ         -0.0990     0.6600    -1.2750 c6         1 1M1       0.341200
      8 NAE          0.6660    -0.3810    -0.6390 na         1 1M1      -0.179600
      9 CAD          2.0130    -0.3930    -0.3870 ca         1 1M1      -0.068200
     10 CAI          3.0560     0.4150    -0.8170 ca         1 1M1      -0.116000
     11 CAH          4.3230     0.0880    -0.3590 ca         1 1M1      -0.099000
     12 CAG          4.5340    -1.0050     0.4930 ca         1 1M1      -0.134000
     13 CAF          3.4860    -1.8030     0.9190 ca         1 1M1      -0.053000
     14 CAC          2.2020    -1.4860     0.4780 ca         1 1M1       0.082400
     15 NAB          0.9990    -2.0900     0.7510 nc         1 1M1      -0.575100
     16 CAA          0.1130    -1.3940     0.0900 cd         1 1M1       0.513400
     17 CAJ         -1.3170    -1.5890     0.0300 ca         1 1M1      -0.156900
     18 CAK         -1.9800    -2.5290     0.8140 ca         1 1M1      -0.028000
     19 CAL         -3.3490    -2.6980     0.7010 ca         1 1M1      -0.156000
     20 CAM         -4.0560    -1.9160    -0.2090 ca         1 1M1      -0.061000
     21 CAN         -3.4130    -0.9730    -0.9920 ca         1 1M1      -0.179000
     22 CAO         -2.0320    -0.7960    -0.8820 ca         1 1M1       0.318000
     23 NAP         -1.3510     0.0790    -1.6980 nu         1 1M1      -0.950200
     24 H1           0.1230     3.3250    -1.8420 ha         1 1M1       0.122000
     25 H2          -0.2750     5.2150    -0.2630 ha         1 1M1       0.123000
     26 H3          -0.8980     4.6820     2.1010 ha         1 1M1       0.128000
     27 H4          -1.0760     2.3000     2.7710 h4         1 1M1       0.027100
     28 H5           0.4320     0.9910    -2.1710 h2         1 1M1       0.081700
     29 H6           2.9000     1.2590    -1.4770 ha         1 1M1       0.112000
     30 H7           5.1670     0.6920    -0.6650 ha         1 1M1       0.109000
     31 H8           5.5400    -1.2260     0.8240 ha         1 1M1       0.112000
     32 H9           3.6530    -2.6470     1.5760 ha         1 1M1       0.127000
     33 H10         -1.4070    -3.1250     1.5120 ha         1 1M1       0.136000
     34 H11         -3.8630    -3.4290     1.3100 ha         1 1M1       0.118000
     35 H12         -5.1270    -2.0390    -0.3080 ha         1 1M1       0.111000
     36 H13         -3.9770    -0.3710    -1.6930 ha         1 1M1       0.111000
     37 H14         -1.9200     0.6940    -2.2600 hn         1 1M1       0.480000
@<TRIPOS>BOND
     1     1     2 ar  
     2     1     6 ar  
     3     1    24 1   
     4     2     3 ar  
     5     2    25 1   
     6     3     4 ar  
     7     3    26 1   
     8     4     5 ar  
     9     4    27 1   
    10     5     6 ar  
    11     6     7 1   
    12     7     8 1   
    13     7    23 1   
    14     7    28 1   
    15     8     9 1   
    16     8    16 1   
    17     9    10 ar  
    18     9    14 ar  
    19    10    11 ar  
    20    10    29 1   
    21    11    12 ar  
    22    11    30 1   
    23    12    13 ar  
    24    12    31 1   
    25    13    14 ar  
    26    13    32 1   
    27    14    15 1   
    28    15    16 2   
    29    16    17 1   
    30    17    18 ar  
    31    17    22 ar  
    32    18    19 ar  
    33    18    33 1   
    34    19    20 ar  
    35    19    34 1   
    36    20    21 ar  
    37    20    35 1   
    38    21    22 ar  
    39    21    36 1   
    40    22    23 1   
    41    23    37 1   
@<TRIPOS>SUBSTRUCTURE
     1 1M1         1 TEMP              0 ****  ****    0 ROOT
