@<TRIPOS>MOLECULE
1M2
   20    21     1     0     0
SMALL
abcg2


@<TRIPOS>ATOM
      1 C01         -3.6830     0.6530     0.0280 c3         1 1M2       0.209100
      2 N02         -2.7840    -0.4600    -0.1620 nu         1 1M2      -0.899400
      3 C03         -1.4450    -0.3300    -0.1020 cc         1 1M2       0.654700
      4 N04         -0.8380     0.8910    -0.1070 na         1 1M2      -0.352600
      5 C05          0.5200     0.6660    -0.0750 ca         1 1M2      -0.088200
      6 C06          1.6090     1.5190    -0.0640 ca         1 1M2      -0.111000
      7 C07          2.8700     0.9310    -0.0250 ca         1 1M2      -0.110000
      8 C08          3.0180    -0.4570     0.0010 ca         1 1M2      -0.126000
      9 C09          1.9160    -1.3040    -0.0100 ca         1 1M2      -0.070000
     10 C10          0.6460    -0.7350    -0.0480 ca         1 1M2       0.107400
     11 N11         -0.5930    -1.3290    -0.0640 nd         1 1M2      -0.650100
     12 H1          -3.5280     1.4180    -0.7340 h1         1 1M2       0.037700
     13 H2          -4.7020     0.2920    -0.0790 h1         1 1M2       0.037700
     14 H3          -3.5890     1.1190     1.0120 h1         1 1M2       0.037700
     15 H4          -3.1320    -1.3820     0.0370 hn         1 1M2       0.510000
     16 H5          -1.2920     1.7900    -0.1320 hn         1 1M2       0.353000
     17 H6           1.4910     2.5950    -0.0840 ha         1 1M2       0.112000
     18 H7           3.7480     1.5640    -0.0140 ha         1 1M2       0.110000
     19 H8           4.0130    -0.8820     0.0310 ha         1 1M2       0.111000
     20 H9           2.0400    -2.3800     0.0100 ha         1 1M2       0.126000
@<TRIPOS>BOND
     1     1     2 1   
     2     1    12 1   
     3     1    13 1   
     4     1    14 1   
     5     2     3 1   
     6     2    15 1   
     7     3     4 1   
     8     3    11 2   
     9     4     5 1   
    10     4    16 1   
    11     5     6 ar  
    12     5    10 ar  
    13     6     7 ar  
    14     6    17 1   
    15     7     8 ar  
    16     7    18 1   
    17     8     9 ar  
    18     8    19 1   
    19     9    10 ar  
    20     9    20 1   
    21    10    11 1   
@<TRIPOS>SUBSTRUCTURE
     1 1M2         1 TEMP              0 ****  ****    0 ROOT
