@<TRIPOS>MOLECULE
1M2
   20    21     1     0     0
SMALL
No Charge or Current Charge


@<TRIPOS>ATOM
      1 C01         -3.7950     0.6300    -0.0190 c3         1 1M2       0.209100
      2 N02         -2.7760    -0.4290    -0.0240 nu         1 1M2      -0.899400
      3 C03         -1.4350    -0.2700    -0.0270 cc         1 1M2       0.654700
      4 N04         -0.7870     0.9470    -0.0260 na         1 1M2      -0.352600
      5 C05          0.5440     0.6660    -0.0300 ca         1 1M2      -0.088200
      6 C06          1.6510     1.5220    -0.0310 ca         1 1M2      -0.111000
      7 C07          2.9300     0.9260    -0.0360 ca         1 1M2      -0.110000
      8 C08          3.0620    -0.4840    -0.0390 ca         1 1M2      -0.126000
      9 C09          1.9150    -1.3110    -0.0380 ca         1 1M2      -0.070000
     10 C10          0.6530    -0.6990    -0.0330 ca         1 1M2       0.107400
     11 N11         -0.6010    -1.3090    -0.0310 nd         1 1M2      -0.650100
     12 H1          -3.6940     1.2640    -0.9100 h1         1 1M2       0.037700
     13 H2          -4.8020     0.1920    -0.0170 h1         1 1M2       0.037700
     14 H3          -3.6900     1.2600     0.8740 h1         1 1M2       0.037700
     15 H4          -3.0680    -1.4050    -0.0250 hn         1 1M2       0.510000
     16 H5          -1.2320     1.8510    -0.0230 hn         1 1M2       0.353000
     17 H6           1.5330     2.6030    -0.0280 ha         1 1M2       0.112000
     18 H7           3.8190     1.5530    -0.0370 ha         1 1M2       0.110000
     19 H8           4.0520    -0.9350    -0.0420 ha         1 1M2       0.111000
     20 H9           2.0060    -2.3940    -0.0400 ha         1 1M2       0.126000
@<TRIPOS>BOND
     1     1     2 1   
     2     1    12 1   
     3     1    13 1   
     4     1    14 1   
     5     2     3 1   
     6     2    15 1   
     7     3     4 1   
     8     3    11 2   
     9     4     5 1   
    10     4    16 1   
    11     5     6 ar  
    12     5    10 ar  
    13     6     7 ar  
    14     6    17 1   
    15     7     8 ar  
    16     7    18 1   
    17     8     9 ar  
    18     8    19 1   
    19     9    10 ar  
    20     9    20 1   
    21    10    11 1   
@<TRIPOS>SUBSTRUCTURE
     1 1M2         1 TEMP              0 ****  ****    0 ROOT
