@<TRIPOS>MOLECULE
1M3
   71    74     1     0     0
SMALL
No Charge or Current Charge


@<TRIPOS>ATOM
      1 O2          -7.6050    -0.5130    -1.4490 o          1 1M3      -0.541000
      2 S1          -6.7820    -0.2930    -0.2560 sy         1 1M3       1.179600
      3 O1          -7.1780     0.5980     0.8350 o          1 1M3      -0.541000
      4 N7          -6.5040    -1.8110     0.3990 n7         1 1M3      -0.925300
      5 C23         -7.3930    -2.4530     1.3840 c3         1 1M3       0.270200
      6 C26         -7.2360    -1.8060     2.7830 c3         1 1M3      -0.109433
      7 C25         -8.8670    -2.4200     0.9110 c3         1 1M3      -0.109433
      8 C24         -6.9170    -3.9220     1.4570 c3         1 1M3      -0.109433
      9 C21         -5.0990     0.1010    -0.7660 ca         1 1M3      -0.261500
     10 C20         -4.5910    -0.4050    -1.9790 ca         1 1M3      -0.057000
     11 C19         -3.2800    -0.0960    -2.3740 ca         1 1M3      -0.104000
     12 C18         -2.4660     0.7110    -1.5580 ca         1 1M3      -0.078000
     13 C22         -4.2730     0.9090     0.0500 ca         1 1M3      -0.073000
     14 C17         -2.9510     1.2100    -0.3330 ca         1 1M3       0.294000
     15 N1          -2.1760     2.0290     0.5030 nu         1 1M3      -0.941900
     16 C1          -0.8120     2.1840     0.7210 ca         1 1M3       0.425900
     17 N3           0.0120     1.2630     0.2000 nb         1 1M3      -0.322000
     18 C4           1.3180     1.4220     0.4410 ca         1 1M3       0.421900
     19 N2           1.8880     2.3920     1.1760 nb         1 1M3      -0.256000
     20 C3           1.0580     3.3070     1.7060 ca         1 1M3       0.169900
     21 C2          -0.3330     3.2470     1.5080 ca         1 1M3      -0.291300
     22 C5          -1.2490     4.3000     2.1280 c3         1 1M3      -0.026800
     23 N4           2.1220     0.4290    -0.0990 nu         1 1M3      -0.925900
     24 C6           3.5030     0.2290    -0.2080 ca         1 1M3       0.289000
     25 C11          4.4240     1.2950    -0.2280 ca         1 1M3      -0.126000
     26 C10          5.8030     1.0460    -0.3540 ca         1 1M3      -0.126500
     27 C9           6.2920    -0.2700    -0.4700 ca         1 1M3       0.255000
     28 C8           5.3660    -1.3340    -0.4690 ca         1 1M3      -0.126500
     29 C7           3.9860    -1.0830    -0.3430 ca         1 1M3      -0.126000
     30 N5           7.6840    -0.5010    -0.5970 nh         1 1M3      -0.776400
     31 C15          8.6430     0.0840     0.3980 c6         1 1M3       0.156300
     32 C14         10.1030     0.1990    -0.1590 c6         1 1M3       0.161300
     33 N6          10.6210    -1.0840    -0.7290 n3         1 1M3      -0.715600
     34 C16         10.9130    -2.1090     0.3010 c3         1 1M3       0.153100
     35 C13          9.6800    -1.5600    -1.7910 c6         1 1M3       0.161300
     36 C12          8.2080    -1.7290    -1.2820 c6         1 1M3       0.156300
     37 H1          -5.5640    -1.7160     0.7730 hn         1 1M3       0.494000
     38 H2          -7.6990    -0.8160     2.8340 hc         1 1M3       0.048033
     39 H3          -7.7260    -2.4240     3.5460 hc         1 1M3       0.048033
     40 H4          -6.1790    -1.7100     3.0610 hc         1 1M3       0.048033
     41 H5          -8.9630    -2.8300    -0.1020 hc         1 1M3       0.048033
     42 H6          -9.4970    -3.0210     1.5770 hc         1 1M3       0.048033
     43 H7          -9.2700    -1.4010     0.9110 hc         1 1M3       0.048033
     44 H8          -5.8740    -3.9840     1.7910 hc         1 1M3       0.048033
     45 H9          -7.5300    -4.4970     2.1610 hc         1 1M3       0.048033
     46 H10         -6.9890    -4.4060     0.4760 hc         1 1M3       0.048033
     47 H11         -5.2090    -1.0340    -2.6180 ha         1 1M3       0.120000
     48 H12         -2.8930    -0.4780    -3.3160 ha         1 1M3       0.117000
     49 H13         -1.4650     0.9580    -1.8950 ha         1 1M3       0.145000
     50 H14         -4.6530     1.3010     0.9900 ha         1 1M3       0.137000
     51 H15         -2.7270     2.6000     1.1410 hn         1 1M3       0.506000
     52 H16          1.5170     4.0950     2.3010 h4         1 1M3       0.021100
     53 H17         -1.9270     3.8520     2.8650 hc         1 1M3       0.041367
     54 H18         -0.6750     5.0800     2.6430 hc         1 1M3       0.041367
     55 H19         -1.8590     4.7970     1.3630 hc         1 1M3       0.041367
     56 H20          1.5670    -0.3610    -0.4260 hn         1 1M3       0.505000
     57 H21          4.0810     2.3220    -0.1690 ha         1 1M3       0.128500
     58 H22          6.4940     1.8840    -0.3800 ha         1 1M3       0.114500
     59 H23          5.7070    -2.3610    -0.5540 ha         1 1M3       0.114500
     60 H24          3.2910    -1.9190    -0.3400 ha         1 1M3       0.128500
     61 H25          8.3180     1.0870     0.7080 h1         1 1M3       0.039450
     62 H26          8.6550    -0.5400     1.3040 h1         1 1M3       0.039450
     63 H27         10.1060     0.9760    -0.9380 h1         1 1M3       0.059450
     64 H28         10.7630     0.5620     0.6420 h1         1 1M3       0.059450
     65 H30         10.0070    -2.4010     0.8490 h1         1 1M3       0.030033
     66 H31         11.3360    -3.0110    -0.1620 h1         1 1M3       0.030033
     67 H32         11.6440    -1.7290     1.0270 h1         1 1M3       0.030033
     68 H33          9.6690    -0.8400    -2.6230 h1         1 1M3       0.059450
     69 H34         10.0240    -2.5160    -2.2130 h1         1 1M3       0.059450
     70 H35          8.1640    -2.5850    -0.5930 h1         1 1M3       0.039450
     71 H36          7.5760    -1.9770    -2.1470 h1         1 1M3       0.039450
@<TRIPOS>BOND
     1     1     2 2   
     2     2     3 2   
     3     2     4 1   
     4     2     9 1   
     5     4     5 1   
     6     4    37 1   
     7     5     6 1   
     8     5     7 1   
     9     5     8 1   
    10     6    38 1   
    11     6    39 1   
    12     6    40 1   
    13     7    41 1   
    14     7    42 1   
    15     7    43 1   
    16     8    44 1   
    17     8    45 1   
    18     8    46 1   
    19     9    10 ar  
    20     9    13 ar  
    21    10    11 ar  
    22    10    47 1   
    23    11    12 ar  
    24    11    48 1   
    25    12    14 ar  
    26    12    49 1   
    27    13    14 ar  
    28    13    50 1   
    29    14    15 1   
    30    15    16 1   
    31    15    51 1   
    32    16    17 ar  
    33    16    21 ar  
    34    17    18 ar  
    35    18    19 ar  
    36    18    23 1   
    37    19    20 ar  
    38    20    21 ar  
    39    20    52 1   
    40    21    22 1   
    41    22    53 1   
    42    22    54 1   
    43    22    55 1   
    44    23    24 1   
    45    23    56 1   
    46    24    25 ar  
    47    24    29 ar  
    48    25    26 ar  
    49    25    57 1   
    50    26    27 ar  
    51    26    58 1   
    52    27    28 ar  
    53    27    30 1   
    54    28    29 ar  
    55    28    59 1   
    56    29    60 1   
    57    30    31 1   
    58    30    36 1   
    59    31    32 1   
    60    31    61 1   
    61    31    62 1   
    62    32    33 1   
    63    32    63 1   
    64    32    64 1   
    65    33    34 1   
    66    33    35 1   
    67    34    65 1   
    68    34    66 1   
    69    34    67 1   
    70    35    36 1   
    71    35    68 1   
    72    35    69 1   
    73    36    70 1   
    74    36    71 1   
@<TRIPOS>SUBSTRUCTURE
     1 1M3         1 TEMP              0 ****  ****    0 ROOT
