@<TRIPOS>MOLECULE
1M3
   71    74     1     0     0
SMALL
abcg2


@<TRIPOS>ATOM
      1 O2          -7.6390    -0.0130    -1.5150 o          1 1M3      -0.541000
      2 S1          -6.8400    -0.2140    -0.3160 sy         1 1M3       1.179600
      3 O1          -7.1170     0.5720     0.8760 o          1 1M3      -0.541000
      4 N7          -6.9830    -1.7930     0.0530 n7         1 1M3      -0.925300
      5 C23         -6.5120    -2.4640     1.2890 c3         1 1M3       0.270200
      6 C26         -5.1510    -1.9580     1.7640 c3         1 1M3      -0.109433
      7 C25         -7.5580    -2.2950     2.3890 c3         1 1M3      -0.109433
      8 C24         -6.3920    -3.9410     0.9190 c3         1 1M3      -0.109433
      9 C21         -5.1480     0.0810    -0.7810 ca         1 1M3      -0.261500
     10 C20         -4.6230    -0.6330    -1.8500 ca         1 1M3      -0.057000
     11 C19         -3.3040    -0.4010    -2.1990 ca         1 1M3      -0.104000
     12 C18         -2.5230     0.5190    -1.5140 ca         1 1M3      -0.078000
     13 C22         -4.3960     1.0040    -0.0830 ca         1 1M3      -0.073000
     14 C17         -3.0640     1.2330    -0.4440 ca         1 1M3       0.294000
     15 N1          -2.3810     2.2060     0.2790 nu         1 1M3      -0.941900
     16 C1          -1.0420     2.3690     0.4740 ca         1 1M3       0.425900
     17 N3          -0.2010     1.5020    -0.0540 nb         1 1M3      -0.322000
     18 C4           1.1050     1.6840     0.1700 ca         1 1M3       0.421900
     19 N2           1.6370     2.6680     0.8760 nb         1 1M3      -0.256000
     20 C3           0.7660     3.5340     1.4010 ca         1 1M3       0.169900
     21 C2          -0.5970     3.4640     1.2550 ca         1 1M3      -0.291300
     22 C5          -1.5280     4.4610     1.8670 c3         1 1M3      -0.026800
     23 N4           1.8960     0.7380    -0.4070 nu         1 1M3      -0.925900
     24 C6           3.2740     0.5310    -0.3620 ca         1 1M3       0.289000
     25 C11          4.1910     1.3280     0.3290 ca         1 1M3      -0.126000
     26 C10          5.5420     1.0230     0.3050 ca         1 1M3      -0.126500
     27 C9           6.0490    -0.0820    -0.3850 ca         1 1M3       0.255000
     28 C8           5.1230    -0.8730    -1.0720 ca         1 1M3      -0.126500
     29 C7           3.7720    -0.5660    -1.0650 ca         1 1M3      -0.126000
     30 N5           7.4260    -0.3370    -0.3930 nh         1 1M3      -0.776400
     31 C15          8.0680    -0.4340     0.9150 c6         1 1M3       0.156300
     32 C14          9.5830    -0.3680     0.7620 c6         1 1M3       0.161300
     33 N6          10.1210    -1.3610    -0.1490 n3         1 1M3      -0.715600
     34 C16         10.1680    -2.6980     0.4080 c3         1 1M3       0.153100
     35 C13          9.4280    -1.2730    -1.4190 c6         1 1M3       0.161300
     36 C12          7.9080    -1.3520    -1.3110 c6         1 1M3       0.156300
     37 H1          -7.0570    -2.3800    -0.7670 hn         1 1M3       0.494000
     38 H2          -5.1820    -0.9160     2.0820 hc         1 1M3       0.048033
     39 H3          -4.8360    -2.5460     2.6260 hc         1 1M3       0.048033
     40 H4          -4.3890    -2.0640     0.9910 hc         1 1M3       0.048033
     41 H5          -8.5230    -2.6870     2.0660 hc         1 1M3       0.048033
     42 H6          -7.2530    -2.8410     3.2830 hc         1 1M3       0.048033
     43 H7          -7.6860    -1.2500     2.6640 hc         1 1M3       0.048033
     44 H8          -5.6500    -4.0940     0.1320 hc         1 1M3       0.048033
     45 H9          -6.0770    -4.5160     1.7900 hc         1 1M3       0.048033
     46 H10         -7.3460    -4.3460     0.5780 hc         1 1M3       0.048033
     47 H11         -5.2140    -1.3550    -2.3970 ha         1 1M3       0.120000
     48 H12         -2.8690    -0.9420    -3.0290 ha         1 1M3       0.117000
     49 H13         -1.5010     0.6770    -1.8150 ha         1 1M3       0.145000
     50 H14         -4.8250     1.5430     0.7530 ha         1 1M3       0.137000
     51 H15         -2.9730     2.8170     0.8200 hn         1 1M3       0.506000
     52 H16          1.1980     4.3460     1.9790 h4         1 1M3       0.021100
     53 H17         -2.2160     4.0000     2.5810 hc         1 1M3       0.041367
     54 H18         -0.9680     5.2230     2.4070 hc         1 1M3       0.041367
     55 H19         -2.1340     4.9740     1.1170 hc         1 1M3       0.041367
     56 H20          1.3740     0.0430    -0.9170 hn         1 1M3       0.505000
     57 H21          3.8560     2.1960     0.8730 ha         1 1M3       0.128500
     58 H22          6.2180     1.6840     0.8330 ha         1 1M3       0.114500
     59 H23          5.4390    -1.7520    -1.6180 ha         1 1M3       0.114500
     60 H24          3.0900    -1.2070    -1.6110 ha         1 1M3       0.128500
     61 H25          7.7470     0.3890     1.5510 h1         1 1M3       0.039450
     62 H26          7.7710    -1.3640     1.4240 h1         1 1M3       0.039450
     63 H27          9.8490     0.6260     0.3880 h1         1 1M3       0.059450
     64 H28         10.0510    -0.4810     1.7430 h1         1 1M3       0.059450
     65 H30          9.1990    -3.1290     0.6900 h1         1 1M3       0.030033
     66 H31         10.6300    -3.3750    -0.3120 h1         1 1M3       0.030033
     67 H32         10.7940    -2.6950     1.3020 h1         1 1M3       0.030033
     68 H33          9.6900    -0.3180    -1.8860 h1         1 1M3       0.059450
     69 H34          9.7830    -2.0640    -2.0840 h1         1 1M3       0.059450
     70 H35          7.5950    -2.3640    -1.0090 h1         1 1M3       0.039450
     71 H36          7.4850    -1.1720    -2.3010 h1         1 1M3       0.039450
@<TRIPOS>BOND
     1     1     2 2   
     2     2     3 2   
     3     2     4 1   
     4     2     9 1   
     5     4     5 1   
     6     4    37 1   
     7     5     6 1   
     8     5     7 1   
     9     5     8 1   
    10     6    38 1   
    11     6    39 1   
    12     6    40 1   
    13     7    41 1   
    14     7    42 1   
    15     7    43 1   
    16     8    44 1   
    17     8    45 1   
    18     8    46 1   
    19     9    10 ar  
    20     9    13 ar  
    21    10    11 ar  
    22    10    47 1   
    23    11    12 ar  
    24    11    48 1   
    25    12    14 ar  
    26    12    49 1   
    27    13    14 ar  
    28    13    50 1   
    29    14    15 1   
    30    15    16 1   
    31    15    51 1   
    32    16    17 ar  
    33    16    21 ar  
    34    17    18 ar  
    35    18    19 ar  
    36    18    23 1   
    37    19    20 ar  
    38    20    21 ar  
    39    20    52 1   
    40    21    22 1   
    41    22    53 1   
    42    22    54 1   
    43    22    55 1   
    44    23    24 1   
    45    23    56 1   
    46    24    25 ar  
    47    24    29 ar  
    48    25    26 ar  
    49    25    57 1   
    50    26    27 ar  
    51    26    58 1   
    52    27    28 ar  
    53    27    30 1   
    54    28    29 ar  
    55    28    59 1   
    56    29    60 1   
    57    30    31 1   
    58    30    36 1   
    59    31    32 1   
    60    31    61 1   
    61    31    62 1   
    62    32    33 1   
    63    32    63 1   
    64    32    64 1   
    65    33    34 1   
    66    33    35 1   
    67    34    65 1   
    68    34    66 1   
    69    34    67 1   
    70    35    36 1   
    71    35    68 1   
    72    35    69 1   
    73    36    70 1   
    74    36    71 1   
@<TRIPOS>SUBSTRUCTURE
     1 1M3         1 TEMP              0 ****  ****    0 ROOT
