@<TRIPOS>MOLECULE
1M4
   36    38     1     0     0
SMALL
bcc


@<TRIPOS>ATOM
      1 C1           0.2780     0.5320    -0.0310 ca         1 1M4      -0.142300
      2 C2           0.3380     1.9200    -0.1510 ca         1 1M4       0.184100
      3 C3          -0.8390     2.6710    -0.1370 ca         1 1M4      -0.169000
      4 C4          -2.0670     2.0580     0.0060 ca         1 1M4      -0.063000
      5 C5          -2.1210     0.6770     0.1540 ca         1 1M4      -0.057900
      6 C6          -0.9630    -0.0770     0.1390 ca         1 1M4      -0.048000
      7 C7           1.5330    -0.3120    -0.0730 c5         1 1M4       0.121500
      8 C8           2.7290     0.5490    -0.4980 c6         1 1M4      -0.084400
      9 C9           2.7080     1.9480     0.1060 c6         1 1M4       0.173800
     10 O10          1.4870     2.6000    -0.2930 os         1 1M4      -0.322900
     11 C11          1.3650    -1.4390    -1.1010 c          1 1M4       0.686500
     12 N12          1.5160    -2.5900    -0.3910 n          1 1M4      -0.453300
     13 C13          1.7370    -2.2490     0.9430 c2         1 1M4       0.664800
     14 N14          1.7540    -0.9920     1.1900 n2         1 1M4      -0.688900
     15 O15          1.1500    -1.3460    -2.2880 o          1 1M4      -0.570500
     16 N16          1.8560    -3.2340     1.8530 nv         1 1M4      -0.917800
     17 C17          1.4190    -3.9260    -0.9280 c3         1 1M4       0.095300
     18 BR1         -3.7930    -0.1750     0.3770 br         1 1M4      -0.104100
     19 C18          2.8030     1.9540     1.6280 c3         1 1M4      -0.099600
     20 C19          3.8230     2.7870    -0.4960 c3         1 1M4      -0.099600
     21 H1          -0.7820     3.7480    -0.2350 ha         1 1M4       0.149000
     22 H2          -2.9660     2.6590     0.0140 ha         1 1M4       0.147000
     23 H3          -1.0180    -1.1530     0.2530 ha         1 1M4       0.144000
     24 H4           3.6550     0.0410    -0.2230 hc         1 1M4       0.068200
     25 H5           2.7260     0.6530    -1.5870 hc         1 1M4       0.068200
     26 H6           2.1660    -4.1470     1.5640 hn         1 1M4       0.432800
     27 H7           2.1700    -2.9560     2.7680 hn         1 1M4       0.432800
     28 H8           2.3440    -4.4810    -0.7710 h1         1 1M4       0.051033
     29 H9           0.5920    -4.4700    -0.4730 h1         1 1M4       0.051033
     30 H10          1.2420    -3.8560    -1.9970 h1         1 1M4       0.051033
     31 H11          3.7290     1.4740     1.9420 hc         1 1M4       0.050033
     32 H12          2.8120     2.9800     1.9990 hc         1 1M4       0.050033
     33 H13          1.9820     1.4190     2.1030 hc         1 1M4       0.050033
     34 H14          3.7780     2.7880    -1.5850 hc         1 1M4       0.050033
     35 H15          3.7680     3.8190    -0.1470 hc         1 1M4       0.050033
     36 H16          4.7920     2.3860    -0.1980 hc         1 1M4       0.050033
@<TRIPOS>BOND
     1     1     2 ar  
     2     1     6 ar  
     3     1     7 1   
     4     2     3 ar  
     5     2    10 1   
     6     3     4 ar  
     7     3    21 1   
     8     4     5 ar  
     9     4    22 1   
    10     5     6 ar  
    11     5    18 1   
    12     6    23 1   
    13     7     8 1   
    14     7    11 1   
    15     7    14 1   
    16     8     9 1   
    17     8    24 1   
    18     8    25 1   
    19     9    10 1   
    20     9    19 1   
    21     9    20 1   
    22    11    12 1   
    23    11    15 2   
    24    12    13 1   
    25    12    17 1   
    26    13    14 2   
    27    13    16 1   
    28    16    26 1   
    29    16    27 1   
    30    17    28 1   
    31    17    29 1   
    32    17    30 1   
    33    19    31 1   
    34    19    32 1   
    35    19    33 1   
    36    20    34 1   
    37    20    35 1   
    38    20    36 1   
@<TRIPOS>SUBSTRUCTURE
     1 1M4         1 TEMP              0 ****  ****    0 ROOT
