@<TRIPOS>MOLECULE
1M4
   36    38     1     0     0
SMALL
No Charge or Current Charge


@<TRIPOS>ATOM
      1 C1           0.2670     0.5220    -0.0510 ca         1 1M4      -0.142300
      2 C2           0.3150     1.9350    -0.1540 ca         1 1M4       0.184100
      3 C3          -0.8670     2.6940    -0.1510 ca         1 1M4      -0.151000
      4 C4          -2.1140     2.0640    -0.0170 ca         1 1M4      -0.045000
      5 C5          -2.1730     0.6690     0.1130 ca         1 1M4      -0.057900
      6 C6          -0.9950    -0.0970     0.0960 ca         1 1M4      -0.030000
      7 C7           1.5410    -0.3390    -0.1070 c5         1 1M4       0.121500
      8 C8           2.7790     0.5300    -0.4760 c6         1 1M4      -0.084400
      9 C9           2.7350     1.9630     0.1140 c6         1 1M4       0.197000
     10 O10          1.5100     2.6120    -0.2700 os         1 1M4      -0.346100
     11 C11          1.3570    -1.4940    -1.1480 c          1 1M4       0.544000
     12 N12          1.4680    -2.6210    -0.3640 n          1 1M4      -0.386300
     13 C13          1.7140    -2.2650     0.9400 c2         1 1M4       0.664800
     14 N14          1.7900    -1.0270     1.2130 n2         1 1M4      -0.688900
     15 O15          1.1460    -1.4610    -2.3550 o          1 1M4      -0.495000
     16 N16          1.9020    -3.2530     1.8350 nv         1 1M4      -1.028200
     17 C17          1.3120    -3.9890    -0.9070 c3         1 1M4       0.095300
     18 Br1         -3.8660    -0.1980     0.3060 br         1 1M4      -0.104100
     19 C18          2.8170     2.0100     1.6700 c3         1 1M4      -0.099600
     20 C19          3.8840     2.8360    -0.4580 c3         1 1M4      -0.099600
     21 H1          -0.8120     3.7750    -0.2420 ha         1 1M4       0.131000
     22 H2          -3.0270     2.6550    -0.0080 ha         1 1M4       0.129000
     23 H3          -1.0680    -1.1770     0.1960 ha         1 1M4       0.126000
     24 H4           3.7080     0.0210    -0.1840 hc         1 1M4       0.068200
     25 H5           2.8260     0.6220    -1.5700 hc         1 1M4       0.068200
     26 H6           2.3800    -4.0580     1.4520 hn         1 1M4       0.488000
     27 H7           2.2960    -2.9110     2.7030 hn         1 1M4       0.488000
     28 H8           2.2940    -4.4720    -0.9800 h1         1 1M4       0.051033
     29 H9           0.6640    -4.5810    -0.2480 h1         1 1M4       0.051033
     30 H10          0.8560    -3.9590    -1.9050 h1         1 1M4       0.051033
     31 H11          3.7170     1.4990     2.0330 hc         1 1M4       0.050033
     32 H12          2.8530     3.0430     2.0350 hc         1 1M4       0.050033
     33 H13          1.9520     1.5330     2.1440 hc         1 1M4       0.050033
     34 H14          3.8420     2.8810    -1.5530 hc         1 1M4       0.050033
     35 H15          3.8310     3.8650    -0.0840 hc         1 1M4       0.050033
     36 H16          4.8650     2.4320    -0.1810 hc         1 1M4       0.050033
@<TRIPOS>BOND
     1     1     2 ar  
     2     1     6 ar  
     3     1     7 1   
     4     2     3 ar  
     5     2    10 1   
     6     3     4 ar  
     7     3    21 1   
     8     4     5 ar  
     9     4    22 1   
    10     5     6 ar  
    11     5    18 1   
    12     6    23 1   
    13     7     8 1   
    14     7    11 1   
    15     7    14 1   
    16     8     9 1   
    17     8    24 1   
    18     8    25 1   
    19     9    10 1   
    20     9    19 1   
    21     9    20 1   
    22    11    12 1   
    23    11    15 2   
    24    12    13 1   
    25    12    17 1   
    26    13    14 2   
    27    13    16 1   
    28    16    26 1   
    29    16    27 1   
    30    17    28 1   
    31    17    29 1   
    32    17    30 1   
    33    19    31 1   
    34    19    32 1   
    35    19    33 1   
    36    20    34 1   
    37    20    35 1   
    38    20    36 1   
@<TRIPOS>SUBSTRUCTURE
     1 1M4         1 TEMP              0 ****  ****    0 ROOT
