@<TRIPOS>MOLECULE
1M5
   46    49     1     0     0
SMALL
No Charge or Current Charge


@<TRIPOS>ATOM
      1 C1          -1.3420     0.6020    -0.1430 cp         1 1M5      -0.081000
      2 C2          -1.2790     2.0040    -0.3260 ca         1 1M5      -0.057000
      3 C3          -0.0430     2.6630    -0.4010 ca         1 1M5      -0.150000
      4 C4           1.1550     1.9420    -0.2940 ca         1 1M5       0.177100
      5 C5           1.1330     0.5360    -0.1360 ca         1 1M5      -0.141300
      6 C6          -0.1200    -0.1110    -0.0500 ca         1 1M5      -0.043000
      7 O7           2.3370     2.6470    -0.3590 os         1 1M5      -0.348100
      8 C8           3.5490     2.0470     0.1310 c6         1 1M5       0.197000
      9 C9           3.6680     0.5940    -0.3940 c6         1 1M5      -0.083400
     10 C10          2.4280    -0.2920    -0.0690 c5         1 1M5       0.122500
     11 C11         -2.6570    -0.1080    -0.0560 cp         1 1M5      -0.008000
     12 C12          4.7130     2.9270    -0.4020 c3         1 1M5      -0.099600
     13 C13          3.5280     2.1590     1.6850 c3         1 1M5      -0.099600
     14 C14          2.3420    -1.4940    -1.0700 c          1 1M5       0.544000
     15 N15          2.4220    -2.5850    -0.2330 n          1 1M5      -0.387300
     16 C16          2.5720    -2.1690     1.0690 c2         1 1M5       0.660800
     17 N17          2.6060    -0.9190     1.2920 n2         1 1M5      -0.685900
     18 N18          2.7240    -3.1150     2.0150 nv         1 1M5      -1.026200
     19 O19          2.2160    -1.5170    -2.2890 o          1 1M5      -0.497000
     20 C20          2.3300    -3.9770    -0.7250 c3         1 1M5       0.095300
     21 C21         -3.7730     0.4950     0.5780 ca         1 1M5      -0.099000
     22 C22         -5.0060    -0.1720     0.6600 ca         1 1M5       0.121000
     23 C23         -5.1550    -1.4540     0.1100 ca         1 1M5      -0.106000
     24 C24         -4.0640    -2.0710    -0.5250 ca         1 1M5      -0.103000
     25 C25         -2.8290    -1.4040    -0.6060 ca         1 1M5      -0.104000
     26 Cl1         -6.3690     0.6010     1.4590 cl         1 1M5      -0.209000
     27 H1          -2.1930     2.5850    -0.4190 ha         1 1M5       0.117000
     28 H2          -0.0110     3.7410    -0.5360 ha         1 1M5       0.129000
     29 H3          -0.1510    -1.1870     0.1030 ha         1 1M5       0.113000
     30 H4           3.7840     0.6410    -1.4860 hc         1 1M5       0.067200
     31 H5           4.5870     0.1220    -0.0210 hc         1 1M5       0.067200
     32 H6           4.6100     3.9690    -0.0760 hc         1 1M5       0.049700
     33 H7           5.6830     2.5610    -0.0450 hc         1 1M5       0.049700
     34 H8           4.7420     2.9260    -1.4980 hc         1 1M5       0.049700
     35 H9           2.6450     1.6800     2.1220 hc         1 1M5       0.049700
     36 H10          4.4130     1.6870     2.1270 hc         1 1M5       0.049700
     37 H11          3.5160     3.2070     2.0090 hc         1 1M5       0.049700
     38 H12          3.2400    -3.9250     1.6970 hn         1 1M5       0.486500
     39 H13          3.0570    -2.7290     2.8910 hn         1 1M5       0.486500
     40 H14          3.3250    -4.4400    -0.7140 h1         1 1M5       0.050033
     41 H15          1.6530    -4.5570    -0.0840 h1         1 1M5       0.050033
     42 H16          1.9390    -3.9990    -1.7500 h1         1 1M5       0.050033
     43 H17         -3.6790     1.4810     1.0230 ha         1 1M5       0.130000
     44 H18         -6.1110    -1.9670     0.1750 ha         1 1M5       0.128000
     45 H19         -4.1760    -3.0640    -0.9560 ha         1 1M5       0.116000
     46 H20         -2.0020    -1.8930    -1.1140 ha         1 1M5       0.120000
@<TRIPOS>BOND
     1     1     2 ar  
     2     1     6 ar  
     3     1    11 1   
     4     2     3 ar  
     5     2    27 1   
     6     3     4 ar  
     7     3    28 1   
     8     4     5 ar  
     9     4     7 1   
    10     5     6 ar  
    11     5    10 1   
    12     6    29 1   
    13     7     8 1   
    14     8     9 1   
    15     8    12 1   
    16     8    13 1   
    17     9    10 1   
    18     9    30 1   
    19     9    31 1   
    20    10    14 1   
    21    10    17 1   
    22    11    21 ar  
    23    11    25 ar  
    24    12    32 1   
    25    12    33 1   
    26    12    34 1   
    27    13    35 1   
    28    13    36 1   
    29    13    37 1   
    30    14    15 1   
    31    14    19 2   
    32    15    16 1   
    33    15    20 1   
    34    16    17 2   
    35    16    18 1   
    36    18    38 1   
    37    18    39 1   
    38    20    40 1   
    39    20    41 1   
    40    20    42 1   
    41    21    22 ar  
    42    21    43 1   
    43    22    23 ar  
    44    22    26 1   
    45    23    24 ar  
    46    23    44 1   
    47    24    25 ar  
    48    24    45 1   
    49    25    46 1   
@<TRIPOS>SUBSTRUCTURE
     1 1M5         1 TEMP              0 ****  ****    0 ROOT
