@<TRIPOS>MOLECULE
1M5
   46    49     1     0     0
SMALL
bcc


@<TRIPOS>ATOM
      1 C1          -1.3130     0.6020    -0.1440 cp         1 1M5      -0.081000
      2 C2          -1.2520     1.9860    -0.3310 ca         1 1M5      -0.075000
      3 C3          -0.0380     2.6370    -0.4110 ca         1 1M5      -0.168000
      4 C4           1.1570     1.9200    -0.3180 ca         1 1M5       0.177100
      5 C5           1.1220     0.5370    -0.1520 ca         1 1M5      -0.141300
      6 C6          -0.1130    -0.0930    -0.0550 ca         1 1M5      -0.061000
      7 O7           2.2980     2.6260    -0.4050 os         1 1M5      -0.324900
      8 C8           3.4970     2.0280     0.1220 c6         1 1M5       0.173800
      9 C9           3.6050     0.6050    -0.4120 c6         1 1M5      -0.083400
     10 C10          2.3980    -0.2700    -0.0510 c5         1 1M5       0.122500
     11 C11         -2.6060    -0.1010    -0.0450 cp         1 1M5      -0.008000
     12 C12          4.6380     2.8720    -0.4220 c3         1 1M5      -0.099600
     13 C13          3.4640     2.1000     1.6440 c3         1 1M5      -0.099600
     14 C14          2.3450    -1.4470    -1.0350 c          1 1M5       0.686500
     15 N15          2.4560    -2.5610    -0.2610 n          1 1M5      -0.454300
     16 C16          2.5570    -2.1540     1.0690 c2         1 1M5       0.660800
     17 N17          2.5290    -0.8870     1.2560 n2         1 1M5      -0.685900
     18 N18          2.6150    -3.0960     2.0310 nv         1 1M5      -0.915800
     19 O19          2.2350    -1.4130    -2.2390 o          1 1M5      -0.572500
     20 C20          2.4410    -3.9230    -0.7370 c3         1 1M5       0.095300
     21 C21         -3.6800     0.4910     0.6210 ca         1 1M5      -0.117000
     22 C22         -4.8910    -0.1750     0.7060 ca         1 1M5       0.029400
     23 C23         -5.0720    -1.4310     0.1470 ca         1 1M5      -0.124000
     24 C24         -4.0020    -2.0180    -0.5130 ca         1 1M5      -0.121000
     25 C25         -2.7840    -1.3640    -0.6120 ca         1 1M5      -0.122000
     26 CL1         -6.2100     0.5800     1.5440 cl         1 1M5      -0.117400
     27 H1          -2.1620     2.5650    -0.4250 ha         1 1M5       0.135000
     28 H2          -0.0020     3.7100    -0.5490 ha         1 1M5       0.147000
     29 H3          -0.1420    -1.1640     0.1160 ha         1 1M5       0.131000
     30 H4           3.6960     0.6580    -1.5010 hc         1 1M5       0.067200
     31 H5           4.5160     0.1360    -0.0360 hc         1 1M5       0.067200
     32 H6           4.5390     3.9130    -0.1110 hc         1 1M5       0.049700
     33 H7           5.5890     2.4990    -0.0430 hc         1 1M5       0.049700
     34 H8           4.6730     2.8390    -1.5120 hc         1 1M5       0.049700
     35 H9           2.6250     1.5520     2.0710 hc         1 1M5       0.049700
     36 H10          4.3770     1.6690     2.0560 hc         1 1M5       0.049700
     37 H11          3.4050     3.1390     1.9720 hc         1 1M5       0.049700
     38 H12          2.9820    -4.0070     1.8110 hn         1 1M5       0.431300
     39 H13          2.8430    -2.7680     2.9550 hn         1 1M5       0.431300
     40 H14          3.3680    -4.4360    -0.4820 h1         1 1M5       0.050033
     41 H15          1.5990    -4.4720    -0.3190 h1         1 1M5       0.050033
     42 H16          2.3450    -3.9120    -1.8190 h1         1 1M5       0.050033
     43 H17         -3.5640     1.4600     1.0890 ha         1 1M5       0.148000
     44 H18         -6.0240    -1.9390     0.2200 ha         1 1M5       0.146000
     45 H19         -4.1280    -2.9930    -0.9640 ha         1 1M5       0.134000
     46 H20         -1.9740    -1.8320    -1.1570 ha         1 1M5       0.138000
@<TRIPOS>BOND
     1     1     2 ar  
     2     1     6 ar  
     3     1    11 1   
     4     2     3 ar  
     5     2    27 1   
     6     3     4 ar  
     7     3    28 1   
     8     4     5 ar  
     9     4     7 1   
    10     5     6 ar  
    11     5    10 1   
    12     6    29 1   
    13     7     8 1   
    14     8     9 1   
    15     8    12 1   
    16     8    13 1   
    17     9    10 1   
    18     9    30 1   
    19     9    31 1   
    20    10    14 1   
    21    10    17 1   
    22    11    21 ar  
    23    11    25 ar  
    24    12    32 1   
    25    12    33 1   
    26    12    34 1   
    27    13    35 1   
    28    13    36 1   
    29    13    37 1   
    30    14    15 1   
    31    14    19 2   
    32    15    16 1   
    33    15    20 1   
    34    16    17 2   
    35    16    18 1   
    36    18    38 1   
    37    18    39 1   
    38    20    40 1   
    39    20    41 1   
    40    20    42 1   
    41    21    22 ar  
    42    21    43 1   
    43    22    23 ar  
    44    22    26 1   
    45    23    24 ar  
    46    23    44 1   
    47    24    25 ar  
    48    24    45 1   
    49    25    46 1   
@<TRIPOS>SUBSTRUCTURE
     1 1M5         1 TEMP              0 ****  ****    0 ROOT
