@<TRIPOS>MOLECULE
1M6
   47    50     1     0     0
SMALL
No Charge or Current Charge


@<TRIPOS>ATOM
      1 C1          -1.4810     0.6430    -0.2200 cp         1 1M6      -0.085000
      2 C2          -1.3990     2.0420    -0.4130 ca         1 1M6      -0.056000
      3 C3          -0.1550     2.6870    -0.4680 ca         1 1M6      -0.149000
      4 C4           1.0320     1.9550    -0.3310 ca         1 1M6       0.180100
      5 C5           0.9920     0.5500    -0.1620 ca         1 1M6      -0.141300
      6 C6          -0.2700    -0.0820    -0.0960 ca         1 1M6      -0.043000
      7 O7           2.2230     2.6470    -0.3760 os         1 1M6      -0.348100
      8 C8           3.4180     2.0380     0.1430 c6         1 1M6       0.198000
      9 C9           3.5320     0.5790    -0.3680 c6         1 1M6      -0.083400
     10 C10          2.2770    -0.2910    -0.0610 c5         1 1M6       0.122500
     11 C11          2.1980    -1.5000    -1.0540 c          1 1M6       0.544000
     12 N12          2.2490    -2.5850    -0.2060 n          1 1M6      -0.387300
     13 C13          2.3770    -2.1590     1.0950 c2         1 1M6       0.662800
     14 N14          2.4200    -0.9080     1.3090 n2         1 1M6      -0.685900
     15 C15         -2.8050    -0.0520    -0.1550 cp         1 1M6      -0.019000
     16 C16          2.1520    -3.9800    -0.6880 c3         1 1M6       0.095300
     17 N17          2.5010    -3.0980     2.0520 nv         1 1M6      -1.028200
     18 C18         -3.9250     0.5630     0.4600 ca         1 1M6      -0.068000
     19 C19         -5.1730    -0.0880     0.5240 ca         1 1M6      -0.018000
     20 C20         -5.3190    -1.3730    -0.0310 ca         1 1M6      -0.075000
     21 C21         -4.2230    -2.0000    -0.6450 ca         1 1M6      -0.114000
     22 C22         -2.9800    -1.3470    -0.7060 ca         1 1M6      -0.084000
     23 O23          2.0970    -1.5320    -2.2740 o          1 1M6      -0.497000
     24 C24          4.6020     2.9010    -0.3730 c3         1 1M6      -0.099600
     25 C25          3.3670     2.1630     1.6950 c3         1 1M6      -0.099600
     26 C26         -6.2920     0.5560     1.1570 cg         1 1M6       0.325000
     27 N27         -7.1950     1.0880     1.6720 n1         1 1M6      -0.456000
     28 H1          -2.3050     2.6320    -0.5300 ha         1 1M6       0.117000
     29 H2          -0.1090     3.7640    -0.6120 ha         1 1M6       0.130000
     30 H3          -0.3160    -1.1560     0.0650 ha         1 1M6       0.112000
     31 H4           3.6710     0.6170    -1.4580 hc         1 1M6       0.067700
     32 H5           4.4380     0.1010     0.0270 hc         1 1M6       0.067700
     33 H6           3.1420    -4.4520    -0.6550 h1         1 1M6       0.050700
     34 H7           1.4580    -4.5470    -0.0550 h1         1 1M6       0.050700
     35 H8           1.7800    -4.0070    -1.7200 h1         1 1M6       0.050700
     36 H9           3.0160    -3.9150     1.7520 hn         1 1M6       0.487500
     37 H10          2.8180    -2.7080     2.9310 hn         1 1M6       0.487500
     38 H11         -3.8180     1.5500     0.9040 ha         1 1M6       0.127000
     39 H12         -6.2780    -1.8850     0.0120 ha         1 1M6       0.125000
     40 H13         -4.3370    -2.9920    -1.0770 ha         1 1M6       0.119000
     41 H14         -2.1490    -1.8450    -1.1980 ha         1 1M6       0.120000
     42 H15          4.5040     3.9470    -0.0580 hc         1 1M6       0.050033
     43 H16          5.5600     2.5280     0.0060 hc         1 1M6       0.050033
     44 H17          4.6530     2.8910    -1.4690 hc         1 1M6       0.050033
     45 H18          2.4700     1.6970     2.1170 hc         1 1M6       0.050033
     46 H19          4.2380     1.6860     2.1590 hc         1 1M6       0.050033
     47 H20          3.3590     3.2140     2.0100 hc         1 1M6       0.050033
@<TRIPOS>BOND
     1     1     2 ar  
     2     1     6 ar  
     3     1    15 1   
     4     2     3 ar  
     5     2    28 1   
     6     3     4 ar  
     7     3    29 1   
     8     4     5 ar  
     9     4     7 1   
    10     5     6 ar  
    11     5    10 1   
    12     6    30 1   
    13     7     8 1   
    14     8     9 1   
    15     8    24 1   
    16     8    25 1   
    17     9    10 1   
    18     9    31 1   
    19     9    32 1   
    20    10    11 1   
    21    10    14 1   
    22    11    12 1   
    23    11    23 2   
    24    12    13 1   
    25    12    16 1   
    26    13    14 2   
    27    13    17 1   
    28    15    18 ar  
    29    15    22 ar  
    30    16    33 1   
    31    16    34 1   
    32    16    35 1   
    33    17    36 1   
    34    17    37 1   
    35    18    19 ar  
    36    18    38 1   
    37    19    20 ar  
    38    19    26 1   
    39    20    21 ar  
    40    20    39 1   
    41    21    22 ar  
    42    21    40 1   
    43    22    41 1   
    44    24    42 1   
    45    24    43 1   
    46    24    44 1   
    47    25    45 1   
    48    25    46 1   
    49    25    47 1   
    50    26    27 3   
@<TRIPOS>SUBSTRUCTURE
     1 1M6         1 TEMP              0 ****  ****    0 ROOT
