@<TRIPOS>MOLECULE
1M6
   47    50     1     0     0
SMALL
abcg2


@<TRIPOS>ATOM
      1 C1          -1.4540     0.6470    -0.2280 cp         1 1M6      -0.085000
      2 C2          -1.3730     2.0290    -0.4250 ca         1 1M6      -0.056000
      3 C3          -0.1510     2.6640    -0.4830 ca         1 1M6      -0.149000
      4 C4           1.0330     1.9340    -0.3580 ca         1 1M6       0.180100
      5 C5           0.9790     0.5530    -0.1810 ca         1 1M6      -0.141300
      6 C6          -0.2660    -0.0620    -0.1070 ca         1 1M6      -0.043000
      7 O7           2.1830     2.6260    -0.4250 os         1 1M6      -0.348100
      8 C8           3.3650     2.0190     0.1330 c6         1 1M6       0.198000
      9 C9           3.4670     0.5900    -0.3870 c6         1 1M6      -0.083400
     10 C10          2.2430    -0.2680    -0.0430 c5         1 1M6       0.122500
     11 C11          2.1990    -1.4540    -1.0170 c          1 1M6       0.544000
     12 N12          2.2800    -2.5600    -0.2290 n          1 1M6      -0.387300
     13 C13          2.3550    -2.1410     1.0990 c2         1 1M6       0.662800
     14 N14          2.3370    -0.8720     1.2730 n2         1 1M6      -0.685900
     15 C15         -2.7570    -0.0390    -0.1510 cp         1 1M6      -0.019000
     16 C16          2.2670    -3.9270    -0.6910 c3         1 1M6       0.095300
     17 N17          2.3820    -3.0730     2.0710 nv         1 1M6      -1.028200
     18 C18         -3.8350     0.5600     0.4940 ca         1 1M6      -0.068000
     19 C19         -5.0640    -0.0940     0.5610 ca         1 1M6      -0.018000
     20 C20         -5.2390    -1.3540    -0.0070 ca         1 1M6      -0.075000
     21 C21         -4.1650    -1.9510    -0.6460 ca         1 1M6      -0.114000
     22 C22         -2.9420    -1.3010    -0.7200 ca         1 1M6      -0.084000
     23 O23          2.1160    -1.4310    -2.2230 o          1 1M6      -0.497000
     24 C24          4.5260     2.8450    -0.3950 c3         1 1M6      -0.099600
     25 C25          3.3000     2.1050     1.6530 c3         1 1M6      -0.099600
     26 C26         -6.1550     0.5360     1.2350 cg         1 1M6       0.325000
     27 N27         -7.0360     1.0440     1.7760 n1         1 1M6      -0.456000
     28 H1          -2.2750     2.6160    -0.5430 ha         1 1M6       0.117000
     29 H2          -0.0990     3.7360    -0.6290 ha         1 1M6       0.130000
     30 H3          -0.3110    -1.1310     0.0720 ha         1 1M6       0.112000
     31 H4           3.5820     0.6320    -1.4740 hc         1 1M6       0.067700
     32 H5           4.3650     0.1140     0.0120 hc         1 1M6       0.067700
     33 H6           3.1830    -4.4440    -0.4080 h1         1 1M6       0.050700
     34 H7           1.4100    -4.4660    -0.2890 h1         1 1M6       0.050700
     35 H8           2.1970    -3.9270    -1.7760 h1         1 1M6       0.050700
     36 H9           2.7310    -3.9950     1.8690 hn         1 1M6       0.487500
     37 H10          2.5910    -2.7410     2.9980 hn         1 1M6       0.487500
     38 H11         -3.7210     1.5280     0.9640 ha         1 1M6       0.127000
     39 H12         -6.1970    -1.8530     0.0490 ha         1 1M6       0.125000
     40 H13         -4.2860    -2.9240    -1.1010 ha         1 1M6       0.119000
     41 H14         -2.1260    -1.7770    -1.2480 ha         1 1M6       0.120000
     42 H15          4.4340     3.8890    -0.0930 hc         1 1M6       0.050033
     43 H16          5.4650     2.4640     0.0070 hc         1 1M6       0.050033
     44 H17          4.5830     2.8030    -1.4830 hc         1 1M6       0.050033
     45 H18          2.4470     1.5700     2.0670 hc         1 1M6       0.050033
     46 H19          4.1990     1.6680     2.0890 hc         1 1M6       0.050033
     47 H20          3.2450     3.1470     1.9710 hc         1 1M6       0.050033
@<TRIPOS>BOND
     1     1     2 ar  
     2     1     6 ar  
     3     1    15 1   
     4     2     3 ar  
     5     2    28 1   
     6     3     4 ar  
     7     3    29 1   
     8     4     5 ar  
     9     4     7 1   
    10     5     6 ar  
    11     5    10 1   
    12     6    30 1   
    13     7     8 1   
    14     8     9 1   
    15     8    24 1   
    16     8    25 1   
    17     9    10 1   
    18     9    31 1   
    19     9    32 1   
    20    10    11 1   
    21    10    14 1   
    22    11    12 1   
    23    11    23 2   
    24    12    13 1   
    25    12    16 1   
    26    13    14 2   
    27    13    17 1   
    28    15    18 ar  
    29    15    22 ar  
    30    16    33 1   
    31    16    34 1   
    32    16    35 1   
    33    17    36 1   
    34    17    37 1   
    35    18    19 ar  
    36    18    38 1   
    37    19    20 ar  
    38    19    26 1   
    39    20    21 ar  
    40    20    39 1   
    41    21    22 ar  
    42    21    40 1   
    43    22    41 1   
    44    24    42 1   
    45    24    43 1   
    46    24    44 1   
    47    25    45 1   
    48    25    46 1   
    49    25    47 1   
    50    26    27 3   
@<TRIPOS>SUBSTRUCTURE
     1 1M6         1 TEMP              0 ****  ****    0 ROOT
