@<TRIPOS>MOLECULE
1M7
   46    49     1     0     0
SMALL
bcc


@<TRIPOS>ATOM
      1 C1          -1.8400     0.9950    -0.0350 cp         1 1M7      -0.042000
      2 C2          -1.6250     2.3650    -0.1960 ca         1 1M7      -0.105000
      3 C3          -0.3400     2.8530    -0.3190 ca         1 1M7      -0.132000
      4 C4           0.7700     2.0070    -0.3020 ca         1 1M7      -0.036300
      5 C5           0.5620     0.6380    -0.1460 ca         1 1M7      -0.050300
      6 C6          -0.7350     0.1540    -0.0010 ca         1 1M7      -0.095000
      7 C7           2.1490     2.5830    -0.4550 c6         1 1M7      -0.030100
      8 C8           3.2350     1.7230     0.1910 c6         1 1M7      -0.036000
      9 C9           3.0760     0.3090    -0.3690 c6         1 1M7      -0.046400
     10 C10          1.7170    -0.3490    -0.0790 c5         1 1M7       0.116500
     11 C11         -3.2000     0.4550     0.1020 cp         1 1M7      -0.256600
     12 C12          1.4940    -1.4530    -1.1190 c          1 1M7       0.682500
     13 N13          1.4150    -2.6090    -0.4030 n          1 1M7      -0.454300
     14 C14          1.5540    -2.2890     0.9470 c2         1 1M7       0.657800
     15 N15          1.7180    -1.0440     1.1980 n2         1 1M7      -0.681900
     16 O16          1.4080    -1.3460    -2.3220 o          1 1M7      -0.577500
     17 C17          1.1920    -3.9240    -0.9530 c3         1 1M7       0.094300
     18 N18          1.4480    -3.2760     1.8590 nv         1 1M7      -0.916800
     19 C19         -3.5920    -0.7430    -0.4920 ca         1 1M7       0.438700
     20 N20         -4.8160    -1.2360    -0.3720 nb         1 1M7      -0.698500
     21 C21         -5.6750    -0.5260     0.3420 ca         1 1M7       0.637900
     22 N22         -5.4240     0.6250     0.9480 nb         1 1M7      -0.698500
     23 C23         -4.1940     1.1040     0.8290 ca         1 1M7       0.438700
     24 C24          4.6070     2.2530    -0.2220 c3         1 1M7      -0.083100
     25 C25          3.1270     1.7620     1.7150 c3         1 1M7      -0.083100
     26 H1          -2.4630     3.0490    -0.2390 ha         1 1M7       0.133000
     27 H2          -0.1880     3.9200    -0.4340 ha         1 1M7       0.133000
     28 H3          -0.8910    -0.9070     0.1650 ha         1 1M7       0.133000
     29 H4           2.3700     2.6880    -1.5240 hc         1 1M7       0.053200
     30 H5           2.1680     3.5970    -0.0450 hc         1 1M7       0.053200
     31 H6           3.2160     0.3660    -1.4530 hc         1 1M7       0.055200
     32 H7           3.8600    -0.3480     0.0180 hc         1 1M7       0.055200
     33 H8           2.0390    -4.5810    -0.7600 h1         1 1M7       0.050700
     34 H9           0.2880    -4.3710    -0.5410 h1         1 1M7       0.050700
     35 H10          1.0710    -3.8310    -2.0290 h1         1 1M7       0.050700
     36 H11          1.6710    -4.2210     1.5960 hn         1 1M7       0.431300
     37 H12          1.7080    -3.0350     2.8020 hn         1 1M7       0.431300
     38 H13         -2.8950    -1.3120    -1.0990 h4         1 1M7       0.027600
     39 H14         -6.6790    -0.9230     0.4400 h5         1 1M7       0.049100
     40 H15         -3.9830     2.0370     1.3420 h4         1 1M7       0.027600
     41 H16          4.7360     3.2910     0.0910 hc         1 1M7       0.037367
     42 H17          5.4080     1.6680     0.2350 hc         1 1M7       0.037367
     43 H18          4.7380     2.2130    -1.3050 hc         1 1M7       0.037367
     44 H19          2.1470     1.4560     2.0800 hc         1 1M7       0.037367
     45 H20          3.8650     1.1010     2.1710 hc         1 1M7       0.037367
     46 H21          3.3170     2.7740     2.0810 hc         1 1M7       0.037367
@<TRIPOS>BOND
     1     1     2 ar  
     2     1     6 ar  
     3     1    11 1   
     4     2     3 ar  
     5     2    26 1   
     6     3     4 ar  
     7     3    27 1   
     8     4     5 ar  
     9     4     7 1   
    10     5     6 ar  
    11     5    10 1   
    12     6    28 1   
    13     7     8 1   
    14     7    29 1   
    15     7    30 1   
    16     8     9 1   
    17     8    24 1   
    18     8    25 1   
    19     9    10 1   
    20     9    31 1   
    21     9    32 1   
    22    10    12 1   
    23    10    15 1   
    24    11    19 ar  
    25    11    23 ar  
    26    12    13 1   
    27    12    16 2   
    28    13    14 1   
    29    13    17 1   
    30    14    15 2   
    31    14    18 1   
    32    17    33 1   
    33    17    34 1   
    34    17    35 1   
    35    18    36 1   
    36    18    37 1   
    37    19    20 ar  
    38    19    38 1   
    39    20    21 ar  
    40    21    22 ar  
    41    21    39 1   
    42    22    23 ar  
    43    23    40 1   
    44    24    41 1   
    45    24    42 1   
    46    24    43 1   
    47    25    44 1   
    48    25    45 1   
    49    25    46 1   
@<TRIPOS>SUBSTRUCTURE
     1 1M7         1 TEMP              0 ****  ****    0 ROOT
