@<TRIPOS>MOLECULE
1M7
   46    49     1     0     0
SMALL
No Charge or Current Charge


@<TRIPOS>ATOM
      1 C1          -1.8850     1.0030    -0.0430 cp         1 1M7      -0.042000
      2 C2          -1.6500     2.3870    -0.2050 ca         1 1M7      -0.087000
      3 C3          -0.3450     2.8860    -0.3250 ca         1 1M7      -0.114000
      4 C4           0.7620     2.0190    -0.2870 ca         1 1M7      -0.036300
      5 C5           0.5630     0.6230    -0.1390 ca         1 1M7      -0.050300
      6 C6          -0.7600     0.1430    -0.0110 ca         1 1M7      -0.077000
      7 C7           2.1630     2.6190    -0.4200 c6         1 1M7      -0.030100
      8 C8           3.2720     1.7360     0.2060 c6         1 1M7      -0.036000
      9 C9           3.1200     0.2970    -0.3670 c6         1 1M7      -0.046400
     10 C10          1.7350    -0.3830    -0.1000 c5         1 1M7       0.116500
     11 C11         -3.2770     0.4630     0.0900 cp         1 1M7      -0.126000
     12 C12          1.4800    -1.4990    -1.1660 c          1 1M7       0.540000
     13 N13          1.3950    -2.6380    -0.3950 n          1 1M7      -0.387300
     14 C14          1.5880    -2.3250     0.9300 c2         1 1M7       0.657800
     15 N15          1.7930    -1.1090     1.2270 n2         1 1M7      -0.681900
     16 O16          1.3550    -1.4320    -2.3830 o          1 1M7      -0.502000
     17 C17          1.1030    -3.9700    -0.9680 c3         1 1M7       0.094300
     18 N18          1.5810    -3.3360     1.8190 nv         1 1M7      -1.027200
     19 C19         -3.6260    -0.8470    -0.3300 ca         1 1M7       0.110400
     20 N20         -4.8770    -1.3360    -0.2130 nb         1 1M7      -0.172500
     21 C21         -5.7960    -0.5130     0.3310 ca         1 1M7       0.111900
     22 N22         -5.5900     0.7460     0.7670 nb         1 1M7      -0.172500
     23 C23         -4.3360     1.2280     0.6440 ca         1 1M7       0.110400
     24 C24          4.6740     2.3020    -0.1780 c3         1 1M7      -0.083100
     25 C25          3.1870     1.7670     1.7650 c3         1 1M7      -0.083100
     26 H1          -2.4830     3.0830    -0.2500 ha         1 1M7       0.115000
     27 H2          -0.1940     3.9560    -0.4500 ha         1 1M7       0.115000
     28 H3          -0.9190    -0.9220     0.1340 ha         1 1M7       0.115000
     29 H4           2.3700     2.7710    -1.4890 hc         1 1M7       0.053200
     30 H5           2.1880     3.6200     0.0340 hc         1 1M7       0.053200
     31 H6           3.2710     0.3520    -1.4550 hc         1 1M7       0.055200
     32 H7           3.9300    -0.3490     0.0000 hc         1 1M7       0.055200
     33 H8           2.0170    -4.5780    -0.9730 h1         1 1M7       0.050700
     34 H9           0.3340    -4.4750    -0.3700 h1         1 1M7       0.050700
     35 H10          0.7350    -3.8760    -1.9980 h1         1 1M7       0.050700
     36 H11          1.9770    -4.1950     1.4580 hn         1 1M7       0.486500
     37 H12          1.9500    -3.0560     2.7200 hn         1 1M7       0.486500
     38 H13         -2.8930    -1.5130    -0.7820 h4         1 1M7       0.027600
     39 H14         -6.8070    -0.9050     0.4280 h5         1 1M7       0.049100
     40 H15         -4.1760     2.2400     1.0100 h4         1 1M7       0.027600
     41 H16          4.8040     3.3310     0.1800 hc         1 1M7       0.037367
     42 H17          5.4820     1.6980     0.2540 hc         1 1M7       0.037367
     43 H18          4.8190     2.3140    -1.2650 hc         1 1M7       0.037367
     44 H19          2.1960     1.4750     2.1300 hc         1 1M7       0.037367
     45 H20          3.9200     1.0880     2.2180 hc         1 1M7       0.037367
     46 H21          3.3840     2.7720     2.1560 hc         1 1M7       0.037367
@<TRIPOS>BOND
     1     1     2 ar  
     2     1     6 ar  
     3     1    11 1   
     4     2     3 ar  
     5     2    26 1   
     6     3     4 ar  
     7     3    27 1   
     8     4     5 ar  
     9     4     7 1   
    10     5     6 ar  
    11     5    10 1   
    12     6    28 1   
    13     7     8 1   
    14     7    29 1   
    15     7    30 1   
    16     8     9 1   
    17     8    24 1   
    18     8    25 1   
    19     9    10 1   
    20     9    31 1   
    21     9    32 1   
    22    10    12 1   
    23    10    15 1   
    24    11    19 ar  
    25    11    23 ar  
    26    12    13 1   
    27    12    16 2   
    28    13    14 1   
    29    13    17 1   
    30    14    15 2   
    31    14    18 1   
    32    17    33 1   
    33    17    34 1   
    34    17    35 1   
    35    18    36 1   
    36    18    37 1   
    37    19    20 ar  
    38    19    38 1   
    39    20    21 ar  
    40    21    22 ar  
    41    21    39 1   
    42    22    23 ar  
    43    23    40 1   
    44    24    41 1   
    45    24    42 1   
    46    24    43 1   
    47    25    44 1   
    48    25    45 1   
    49    25    46 1   
@<TRIPOS>SUBSTRUCTURE
     1 1M7         1 TEMP              0 ****  ****    0 ROOT
