@<TRIPOS>MOLECULE
1M8
   47    50     1     0     0
SMALL
abcg2


@<TRIPOS>ATOM
      1 C1           3.0130     0.2670    -0.3350 ca         1 1M8      -0.054000
      2 C2           4.3470     0.5860    -0.5620 ca         1 1M8      -0.134600
      3 C3           4.7250     1.9250    -0.6040 ca         1 1M8      -0.100000
      4 C4           3.7810     2.9180    -0.3980 ca         1 1M8      -0.104000
      5 C5           2.4510     2.6150    -0.1290 ca         1 1M8      -0.089300
      6 C6           2.0770     1.2660    -0.1040 ca         1 1M8      -0.039000
      7 C7           1.4510     3.7030     0.1210 c3         1 1M8      -0.050800
      8 N8           0.7260     0.9460     0.1180 ns         1 1M8      -0.160000
      9 C9           5.2990    -0.5420    -0.8070 c          1 1M8       0.615700
     10 N10          6.5980    -0.2870    -0.5740 ns         1 1M8      -0.482900
     11 O11          4.9030    -1.6330    -1.1910 o          1 1M8      -0.589100
     12 C12          7.6170    -1.2530    -0.8230 cx         1 1M8       0.050700
     13 C13          8.7850    -1.2880     0.1060 cx         1 1M8      -0.135900
     14 C14          7.7840    -2.4030     0.1190 cx         1 1M8      -0.135900
     15 C15          0.2830    -0.0170     0.9700 c          1 1M8       0.649700
     16 C16         -1.1790    -0.2090     1.0180 cc         1 1M8      -0.298600
     17 C17         -1.8340    -0.9340     1.9760 cd         1 1M8      -0.058000
     18 C18         -3.2310    -0.9660     1.7840 cd         1 1M8      -0.122000
     19 C19         -3.6350    -0.2680     0.6780 cc         1 1M8      -0.141000
     20 S20         -2.2870     0.4210    -0.1390 ss         1 1M8       0.222000
     21 O21          1.0220    -0.6900     1.6660 o          1 1M8      -0.565100
     22 C22         -4.9850    -0.0330     0.1580 ca         1 1M8      -0.014000
     23 C23         -5.3890     1.2720    -0.1390 ca         1 1M8      -0.094000
     24 C24         -6.6530     1.5410    -0.6360 ca         1 1M8      -0.108000
     25 C25         -7.5460     0.5010    -0.8470 ca         1 1M8      -0.093000
     26 C26         -7.1710    -0.8030    -0.5640 ca         1 1M8      -0.105000
     27 C27         -5.9020    -1.0620    -0.0690 ca         1 1M8       0.139000
     28 CL1         -5.4710    -2.7130     0.2250 cl         1 1M8      -0.189000
     29 H1           2.7060    -0.7690    -0.3470 ha         1 1M8       0.156000
     30 H2           5.7430     2.2180    -0.8260 ha         1 1M8       0.111000
     31 H3           4.0860     3.9560    -0.4430 ha         1 1M8       0.115000
     32 H4           0.6910     3.7490    -0.6620 hc         1 1M8       0.044700
     33 H5           0.9300     3.5590     1.0690 hc         1 1M8       0.044700
     34 H6           1.9370     4.6760     0.1520 hc         1 1M8       0.044700
     35 H7           0.0500     1.5740    -0.2900 hn         1 1M8       0.154000
     36 H8           6.8800     0.6180    -0.2350 hn         1 1M8       0.318500
     37 H9           7.8160    -1.4460    -1.8730 h1         1 1M8       0.087700
     38 H10          9.7610    -1.4700    -0.3230 hc         1 1M8       0.077950
     39 H11          8.7860    -0.6020     0.9440 hc         1 1M8       0.077950
     40 H12          7.1060    -2.4610     0.9610 hc         1 1M8       0.077950
     41 H13          8.0660    -3.3600    -0.3000 hc         1 1M8       0.077950
     42 H14         -1.3290    -1.4160     2.7990 ha         1 1M8       0.156000
     43 H15         -3.9150    -1.4720     2.4490 ha         1 1M8       0.148000
     44 H16         -4.7010     2.0880     0.0420 ha         1 1M8       0.120000
     45 H17         -6.9390     2.5620    -0.8510 ha         1 1M8       0.121000
     46 H18         -8.5370     0.6990    -1.2340 ha         1 1M8       0.121000
     47 H19         -7.8600    -1.6180    -0.7340 ha         1 1M8       0.132000
@<TRIPOS>BOND
     1     1     2 ar  
     2     1     6 ar  
     3     1    29 1   
     4     2     3 ar  
     5     2     9 1   
     6     3     4 ar  
     7     3    30 1   
     8     4     5 ar  
     9     4    31 1   
    10     5     6 ar  
    11     5     7 1   
    12     6     8 1   
    13     7    32 1   
    14     7    33 1   
    15     7    34 1   
    16     8    15 1   
    17     8    35 1   
    18     9    10 1   
    19     9    11 2   
    20    10    12 1   
    21    10    36 1   
    22    12    13 1   
    23    12    14 1   
    24    12    37 1   
    25    13    14 1   
    26    13    38 1   
    27    13    39 1   
    28    14    40 1   
    29    14    41 1   
    30    15    16 1   
    31    15    21 2   
    32    16    17 2   
    33    16    20 1   
    34    17    18 1   
    35    17    42 1   
    36    18    19 2   
    37    18    43 1   
    38    19    20 1   
    39    19    22 1   
    40    22    23 ar  
    41    22    27 ar  
    42    23    24 ar  
    43    23    44 1   
    44    24    25 ar  
    45    24    45 1   
    46    25    26 ar  
    47    25    46 1   
    48    26    27 ar  
    49    26    47 1   
    50    27    28 1   
@<TRIPOS>SUBSTRUCTURE
     1 1M8         1 TEMP              0 ****  ****    0 ROOT
