@<TRIPOS>MOLECULE
1M8
   47    50     1     0     0
SMALL
No Charge or Current Charge


@<TRIPOS>ATOM
      1 C1           3.0990    -0.2150    -0.0360 ca         1 1M8      -0.054000
      2 C2           4.4360     0.1810    -0.2670 ca         1 1M8      -0.134600
      3 C3           4.6870     1.5170    -0.6580 ca         1 1M8      -0.100000
      4 C4           3.6270     2.4220    -0.8140 ca         1 1M8      -0.104000
      5 C5           2.2980     2.0230    -0.5840 ca         1 1M8      -0.089300
      6 C6           2.0260     0.6940    -0.1850 ca         1 1M8      -0.039000
      7 C7           1.1730     3.0400    -0.7660 c3         1 1M8      -0.050800
      8 N8           0.6660     0.3250     0.0360 ns         1 1M8      -0.160000
      9 C9           5.5530    -0.8330    -0.0920 c          1 1M8       0.615700
     10 N10          6.8360    -0.3890    -0.3370 ns         1 1M8      -0.482900
     11 O11          5.3370    -1.9890     0.2480 o          1 1M8      -0.589100
     12 C12          8.0160    -1.2020    -0.2190 cx         1 1M8       0.050700
     13 C13          9.3520    -0.5020    -0.2390 cx         1 1M8      -0.135900
     14 C14          8.8230    -1.0830     1.0500 cx         1 1M8      -0.135900
     15 C15          0.0710    -0.8180     0.5530 c          1 1M8       0.649700
     16 C16         -1.4060    -0.7490     0.5640 cc         1 1M8      -0.298600
     17 C17         -2.2240    -1.7530     1.0340 cd         1 1M8      -0.058000
     18 C18         -3.6080    -1.4440     0.9270 cd         1 1M8      -0.122000
     19 C19         -3.8330    -0.2180     0.3540 cc         1 1M8      -0.141000
     20 S20         -2.3390     0.6330    -0.0160 ss         1 1M8       0.222000
     21 O21          0.6880    -1.7910     0.9700 o          1 1M8      -0.565100
     22 C22         -5.1820     0.3280     0.2180 ca         1 1M8      -0.014000
     23 C23         -5.4740     1.5730     0.8120 ca         1 1M8      -0.094000
     24 C24         -6.7580     2.1330     0.7070 ca         1 1M8      -0.108000
     25 C25         -7.7650     1.4560     0.0000 ca         1 1M8      -0.093000
     26 C26         -7.4830     0.2210    -0.6060 ca         1 1M8      -0.105000
     27 C27         -6.2000    -0.3440    -0.5020 ca         1 1M8       0.139000
     28 Cl1         -5.8930    -1.8760    -1.3240 cl         1 1M8      -0.189000
     29 H1           2.9100    -1.2430     0.2530 ha         1 1M8       0.156000
     30 H2           5.6960     1.8730    -0.8470 ha         1 1M8       0.111000
     31 H3           3.8450     3.4430    -1.1180 ha         1 1M8       0.115000
     32 H4           0.4740     2.7200    -1.5480 hc         1 1M8       0.044700
     33 H5           0.6060     3.1730     0.1630 hc         1 1M8       0.044700
     34 H6           1.5570     4.0260    -1.0570 hc         1 1M8       0.044700
     35 H7           0.0060     1.0380    -0.2410 hn         1 1M8       0.154000
     36 H8           6.9300     0.5770    -0.6200 hn         1 1M8       0.318500
     37 H9           7.9410    -2.1820    -0.6950 h1         1 1M8       0.087700
     38 H10         10.1800    -1.0130    -0.7240 hc         1 1M8       0.077950
     39 H11          9.3650     0.5810    -0.3390 hc         1 1M8       0.077950
     40 H12          8.4750    -0.3930     1.8140 hc         1 1M8       0.077950
     41 H13          9.2950    -1.9850     1.4320 hc         1 1M8       0.077950
     42 H14         -1.8550    -2.6860     1.4520 ha         1 1M8       0.156000
     43 H15         -4.3980    -2.1090     1.2660 ha         1 1M8       0.148000
     44 H16         -4.7030     2.1030     1.3660 ha         1 1M8       0.120000
     45 H17         -6.9730     3.0920     1.1740 ha         1 1M8       0.121000
     46 H18         -8.7590     1.8910    -0.0830 ha         1 1M8       0.121000
     47 H19         -8.2590    -0.2990    -1.1630 ha         1 1M8       0.132000
@<TRIPOS>BOND
     1     1     2 ar  
     2     1     6 ar  
     3     1    29 1   
     4     2     3 ar  
     5     2     9 1   
     6     3     4 ar  
     7     3    30 1   
     8     4     5 ar  
     9     4    31 1   
    10     5     6 ar  
    11     5     7 1   
    12     6     8 1   
    13     7    32 1   
    14     7    33 1   
    15     7    34 1   
    16     8    15 1   
    17     8    35 1   
    18     9    10 1   
    19     9    11 2   
    20    10    12 1   
    21    10    36 1   
    22    12    13 1   
    23    12    14 1   
    24    12    37 1   
    25    13    14 1   
    26    13    38 1   
    27    13    39 1   
    28    14    40 1   
    29    14    41 1   
    30    15    16 1   
    31    15    21 2   
    32    16    17 2   
    33    16    20 1   
    34    17    18 1   
    35    17    42 1   
    36    18    19 2   
    37    18    43 1   
    38    19    20 1   
    39    19    22 1   
    40    22    23 ar  
    41    22    27 ar  
    42    23    24 ar  
    43    23    44 1   
    44    24    25 ar  
    45    24    45 1   
    46    25    26 ar  
    47    25    46 1   
    48    26    27 ar  
    49    26    47 1   
    50    27    28 1   
@<TRIPOS>SUBSTRUCTURE
     1 1M8         1 TEMP              0 ****  ****    0 ROOT
