@<TRIPOS>MOLECULE
1MA
   38    40     1     0     0
SMALL
No Charge or Current Charge


@<TRIPOS>ATOM
      1 P           -3.0270    -1.5220     0.1090 p5         1 1MA       1.272900
      2 OP1         -4.4170    -1.5730    -0.4220 o          1 1MA      -0.914500
      3 OP2         -2.7410    -2.7860     0.8420 o          1 1MA      -0.914500
      4 OP3         -2.0610    -1.3700    -1.0110 o          1 1MA      -0.914500
      5 O5          -2.8980    -0.2900     1.1370 os         1 1MA      -0.562400
      6 C5          -3.0490     1.0580     0.6600 c3         1 1MA       0.242600
      7 C4          -1.7040     1.8590     0.7330 c5         1 1MA       0.144300
      8 O4          -0.5360     0.9860     0.8200 os         1 1MA      -0.409000
      9 C3          -1.4600     2.7970    -0.5050 c5         1 1MA       0.096300
     10 O3          -0.7820     4.0150    -0.1620 oh         1 1MA      -0.722000
     11 C2          -0.5350     1.8900    -1.3640 c5         1 1MA       0.067300
     12 O2           0.1520     2.6360    -2.3920 oh         1 1MA      -0.716000
     13 C1           0.3890     1.3530    -0.2230 c5         1 1MA       0.325300
     14 N9           1.2810     0.2340    -0.5270 na         1 1MA      -0.170500
     15 C8           1.0540    -0.7820    -1.4450 cc         1 1MA       0.481400
     16 N7           2.1120    -1.5950    -1.5370 nd         1 1MA      -0.632000
     17 C7           3.0350    -1.0590    -0.6450 cd         1 1MA       0.153700
     18 C6           4.3730    -1.4650    -0.2840 cd         1 1MA       0.613200
     19 N6           4.9500    -2.4980    -0.7950 n2         1 1MA      -0.816100
     20 N1           5.1190    -0.7440     0.6490 na         1 1MA      -0.765600
     21 CM1          6.4940    -1.1020     1.0740 c3         1 1MA       0.203100
     22 C10          4.4880     0.3960     1.1980 cd         1 1MA       0.587100
     23 N3           3.2460     0.7890     0.8740 nc         1 1MA      -0.568100
     24 C9           2.5510     0.0440    -0.0370 cc         1 1MA      -0.000600
     25 H5          -3.4100     1.0640    -0.3770 h1         1 1MA      -0.005300
     26 H5'         -3.8020     1.5850     1.2600 h1         1 1MA      -0.005300
     27 H4          -1.7420     2.4580     1.6520 h1         1 1MA       0.081700
     28 H3          -2.3980     3.0240    -1.0320 h1         1 1MA       0.050700
     29 HO3         -0.1710     4.1790    -0.9220 ho         1 1MA       0.492000
     30 H2          -1.1160     1.0670    -1.8040 h1         1 1MA       0.082700
     31 HO2         -0.4460     2.6870    -3.1770 ho         1 1MA       0.493000
     32 H1           1.0360     2.1630     0.1380 h2         1 1MA       0.078700
     33 H8           0.1320    -0.8640    -2.0100 h5         1 1MA       0.186100
     34 HN61         5.8860    -2.5820    -0.3900 hn         1 1MA       0.349400
     35 HM11         7.1710    -1.0840     0.2090 h1         1 1MA       0.032700
     36 HM12         6.8630    -0.3870     1.8210 h1         1 1MA       0.032700
     37 HM13         6.5000    -2.1050     1.5190 h1         1 1MA       0.032700
     38 H6           5.0640     0.9640     1.9190 h5         1 1MA       0.016800
@<TRIPOS>BOND
     1     1     2 1   
     2     1     3 1   
     3     1     4 1   
     4     1     5 1   
     5     5     6 1   
     6     6     7 1   
     7     6    25 1   
     8     6    26 1   
     9     7     8 1   
    10     7     9 1   
    11     7    27 1   
    12     8    13 1   
    13     9    10 1   
    14     9    11 1   
    15     9    28 1   
    16    10    29 1   
    17    11    12 1   
    18    11    13 1   
    19    11    30 1   
    20    12    31 1   
    21    13    14 1   
    22    13    32 1   
    23    14    15 1   
    24    14    24 1   
    25    15    16 2   
    26    15    33 1   
    27    16    17 1   
    28    17    18 1   
    29    17    24 2   
    30    18    19 2   
    31    18    20 1   
    32    19    34 1   
    33    20    21 1   
    34    20    22 1   
    35    21    35 1   
    36    21    36 1   
    37    21    37 1   
    38    22    23 2   
    39    22    38 1   
    40    23    24 1   
@<TRIPOS>SUBSTRUCTURE
     1 1MA         1 TEMP              0 ****  ****    0 ROOT
