@<TRIPOS>MOLECULE
1MA
   38    40     1     0     0
SMALL
abcg2


@<TRIPOS>ATOM
      1 P           -3.4290    -1.8090    -0.0000 p5         1 1MA       1.272900
      2 OP1         -4.5520    -1.6470    -1.0170 o          1 1MA      -0.914500
      3 OP2         -3.7940    -2.5630     1.2690 o          1 1MA      -0.914500
      4 OP3         -2.0900    -2.2100    -0.6260 o          1 1MA      -0.914500
      5 O5          -3.1670    -0.2430     0.6220 os         1 1MA      -0.562400
      6 C5          -2.7820     0.7480    -0.2740 c3         1 1MA       0.242600
      7 C4          -1.9090     1.7650     0.4440 c5         1 1MA       0.144300
      8 O4          -0.7760     1.1330     1.0560 os         1 1MA      -0.409000
      9 C3          -1.3300     2.8090    -0.4960 c5         1 1MA       0.096300
     10 O3          -1.0630     3.9850     0.2270 oh         1 1MA      -0.722000
     11 C2          -0.0300     2.1270    -0.9280 c5         1 1MA       0.067300
     12 O2           0.9750     2.9960    -1.3640 oh         1 1MA      -0.716000
     13 C1           0.3980     1.4430     0.3730 c5         1 1MA       0.325300
     14 N9           1.1660     0.2350     0.1630 na         1 1MA      -0.170500
     15 C8           0.6990    -1.0010    -0.1900 cc         1 1MA       0.481400
     16 N7           1.6670    -1.8650    -0.3530 nd         1 1MA      -0.632000
     17 C7           2.8130    -1.1690    -0.1030 cd         1 1MA       0.153700
     18 C6           4.1800    -1.6100    -0.1330 cd         1 1MA       0.613200
     19 N6           4.5400    -2.7970    -0.4320 n2         1 1MA      -0.816100
     20 N1           5.0530    -0.5530     0.2090 na         1 1MA      -0.765600
     21 CM1          6.4790    -0.8340     0.2340 c3         1 1MA       0.203100
     22 C10          4.6270     0.7000     0.5200 cd         1 1MA       0.587100
     23 N3           3.4040     1.1080     0.5430 nc         1 1MA      -0.568100
     24 C9           2.5230     0.1330     0.2210 cc         1 1MA      -0.000600
     25 H5          -2.2380     0.3390    -1.1370 h1         1 1MA      -0.005300
     26 H5'         -3.6460     1.2920    -0.6840 h1         1 1MA      -0.005300
     27 H4          -2.4920     2.2380     1.2410 h1         1 1MA       0.081700
     28 H3          -1.9950     3.0020    -1.3490 h1         1 1MA       0.050700
     29 HO3         -0.3910     4.4820    -0.2540 ho         1 1MA       0.492000
     30 H2          -0.2530     1.3640    -1.6830 h1         1 1MA       0.082700
     31 HO2          0.8290     3.1940    -2.2940 ho         1 1MA       0.493000
     32 H1           1.0380     2.1160     0.9550 h2         1 1MA       0.078700
     33 H8          -0.3610    -1.2370    -0.2960 h5         1 1MA       0.186100
     34 HN61         5.5440    -2.9300    -0.4080 hn         1 1MA       0.349400
     35 HM11         6.8280    -1.1480    -0.7500 h1         1 1MA       0.032700
     36 HM12         7.0190     0.0630     0.5180 h1         1 1MA       0.032700
     37 HM13         6.7040    -1.6170     0.9580 h1         1 1MA       0.032700
     38 H6           5.4140     1.4010     0.7690 h5         1 1MA       0.016800
@<TRIPOS>BOND
     1     1     2 1   
     2     1     3 1   
     3     1     4 1   
     4     1     5 1   
     5     5     6 1   
     6     6     7 1   
     7     6    25 1   
     8     6    26 1   
     9     7     8 1   
    10     7     9 1   
    11     7    27 1   
    12     8    13 1   
    13     9    10 1   
    14     9    11 1   
    15     9    28 1   
    16    10    29 1   
    17    11    12 1   
    18    11    13 1   
    19    11    30 1   
    20    12    31 1   
    21    13    14 1   
    22    13    32 1   
    23    14    15 1   
    24    14    24 1   
    25    15    16 2   
    26    15    33 1   
    27    16    17 1   
    28    17    18 1   
    29    17    24 2   
    30    18    19 2   
    31    18    20 1   
    32    19    34 1   
    33    20    21 1   
    34    20    22 1   
    35    21    35 1   
    36    21    36 1   
    37    21    37 1   
    38    22    23 2   
    39    22    38 1   
    40    23    24 1   
@<TRIPOS>SUBSTRUCTURE
     1 1MA         1 TEMP              0 ****  ****    0 ROOT
