@<TRIPOS>MOLECULE
1MB
   43    46     1     0     0
SMALL
No Charge or Current Charge


@<TRIPOS>ATOM
      1 C1           4.5200     0.3540     0.3810 ca         1 1MB       0.222000
      2 C2           4.8200     1.6190     0.9050 ca         1 1MB      -0.195000
      3 C3           4.7250     2.7500     0.0870 ca         1 1MB       0.215000
      4 C4           4.3390     2.6230    -1.2550 ca         1 1MB      -0.168000
      5 C5           4.0380     1.3550    -1.7830 ca         1 1MB      -0.047000
      6 C6           4.1170     0.2090    -0.9640 ca         1 1MB      -0.183300
      7 C7           3.7830    -1.1650    -1.5380 c3         1 1MB       0.280100
      8 N8           1.9600    -3.3770     0.7780 nc         1 1MB      -0.697100
      9 C9           2.7940    -3.0500    -0.1920 cd         1 1MB       0.692100
     10 N10          2.6480    -1.8190    -0.8470 na         1 1MB      -0.760400
     11 C11          1.3650    -1.2490    -0.8240 ca         1 1MB       0.316000
     12 C12          0.4470    -1.6070     0.1610 ca         1 1MB      -0.215600
     13 C13         -0.8230    -0.9940     0.2370 ca         1 1MB      -0.012000
     14 C14         -1.1830    -0.0080    -0.7000 ca         1 1MB       0.072100
     15 C15         -0.2860     0.3270    -1.7240 ca         1 1MB      -0.050000
     16 C16          0.9770    -0.2870    -1.7830 ca         1 1MB      -0.157000
     17 C17          0.8300    -2.6870     1.0790 c          1 1MB       0.714100
     18 O18          0.1510    -2.9940     2.0470 o          1 1MB      -0.526100
     19 F19         -6.5700     0.0950    -0.4360 f          1 1MB      -0.109000
     20 O20         -2.4220     0.5940    -0.6770 os         1 1MB      -0.354400
     21 C21         -3.0830     0.9210     0.4850 ca         1 1MB       0.627300
     22 N22         -2.3600     1.4170     1.5130 nb         1 1MB      -0.740000
     23 C23         -3.0080     1.7580     2.6450 ca         1 1MB       0.409900
     24 C24         -4.3930     1.6250     2.7950 ca         1 1MB      -0.209000
     25 C25         -5.1520     1.1210     1.7320 ca         1 1MB       0.006000
     26 C26         -4.4830     0.7620     0.5440 ca         1 1MB      -0.278300
     27 C27         -5.2410     0.2040    -0.6590 c3         1 1MB       0.378300
     28 F28          5.0140     3.9700     0.5900 f          1 1MB      -0.165000
     29 F29         -4.8060    -1.0320    -0.9950 f          1 1MB      -0.109000
     30 F30         -5.0980     0.9900    -1.7500 f          1 1MB      -0.109000
     31 F31          4.6390    -0.7280     1.1840 f          1 1MB      -0.167000
     32 H1           5.1290     1.7200     1.9410 ha         1 1MB       0.157000
     33 H2           4.2730     3.5070    -1.8840 ha         1 1MB       0.143000
     34 H3           3.7430     1.2690    -2.8270 ha         1 1MB       0.121000
     35 H4           3.5670    -1.0900    -2.6120 h1         1 1MB       0.069700
     36 H5           4.6760    -1.7990    -1.4490 h1         1 1MB       0.069700
     37 H6           3.7000    -3.6160    -0.3730 h5         1 1MB       0.046800
     38 H7          -1.5300    -1.2950     1.0060 ha         1 1MB       0.156000
     39 H8          -0.5680     1.0680    -2.4680 ha         1 1MB       0.131000
     40 H9           1.6430    -0.0030    -2.5900 ha         1 1MB       0.122000
     41 H10         -2.3960     2.1500     3.4560 h4         1 1MB       0.028100
     42 H11         -4.8670     1.9140     3.7290 ha         1 1MB       0.136000
     43 H12         -6.2310     1.0170     1.8390 ha         1 1MB       0.140000
@<TRIPOS>BOND
     1     1     2 ar  
     2     1     6 ar  
     3     1    31 1   
     4     2     3 ar  
     5     2    32 1   
     6     3     4 ar  
     7     3    28 1   
     8     4     5 ar  
     9     4    33 1   
    10     5     6 ar  
    11     5    34 1   
    12     6     7 1   
    13     7    10 1   
    14     7    35 1   
    15     7    36 1   
    16     8     9 2   
    17     8    17 1   
    18     9    10 1   
    19     9    37 1   
    20    10    11 1   
    21    11    12 ar  
    22    11    16 ar  
    23    12    13 ar  
    24    12    17 1   
    25    13    14 ar  
    26    13    38 1   
    27    14    15 ar  
    28    14    20 1   
    29    15    16 ar  
    30    15    39 1   
    31    16    40 1   
    32    17    18 2   
    33    19    27 1   
    34    20    21 1   
    35    21    22 ar  
    36    21    26 ar  
    37    22    23 ar  
    38    23    24 ar  
    39    23    41 1   
    40    24    25 ar  
    41    24    42 1   
    42    25    26 ar  
    43    25    43 1   
    44    26    27 1   
    45    27    29 1   
    46    27    30 1   
@<TRIPOS>SUBSTRUCTURE
     1 1MB         1 TEMP              0 ****  ****    0 ROOT
