@<TRIPOS>MOLECULE
1MB
   43    46     1     0     0
SMALL
abcg2


@<TRIPOS>ATOM
      1 C1           4.3650     0.4950     0.4080 ca         1 1MB       0.222000
      2 C2           4.6650     1.7040     1.0020 ca         1 1MB      -0.195000
      3 C3           4.5790     2.8360     0.2150 ca         1 1MB       0.215000
      4 C4           4.2110     2.7850    -1.1150 ca         1 1MB      -0.168000
      5 C5           3.9100     1.5480    -1.6630 ca         1 1MB      -0.047000
      6 C6           3.9720     0.3760    -0.9170 ca         1 1MB      -0.183300
      7 C7           3.6680    -0.9570    -1.5460 c3         1 1MB       0.280100
      8 N8           2.3250    -3.6230     0.5590 nc         1 1MB      -0.697100
      9 C9           3.0630    -2.8540    -0.1670 cd         1 1MB       0.692100
     10 N10          2.6780    -1.7400    -0.8110 na         1 1MB      -0.760400
     11 C11          1.3520    -1.3470    -0.7320 ca         1 1MB       0.316000
     12 C12          0.4870    -2.1220     0.0480 ca         1 1MB      -0.215600
     13 C13         -0.8570    -1.7640     0.1580 ca         1 1MB      -0.012000
     14 C14         -1.3210    -0.6570    -0.5080 ca         1 1MB       0.072100
     15 C15         -0.4690     0.1120    -1.2950 ca         1 1MB      -0.050000
     16 C16          0.8610    -0.2290    -1.4120 ca         1 1MB      -0.157000
     17 C17          0.9980    -3.3160     0.7410 c          1 1MB       0.714100
     18 O18          0.2850    -4.0130     1.4440 o          1 1MB      -0.526100
     19 F19         -6.6150     0.7440    -0.4130 f          1 1MB      -0.109000
     20 O20         -2.6590    -0.3370    -0.4570 os         1 1MB      -0.354400
     21 C21         -3.0870     0.5190     0.4880 ca         1 1MB       0.627300
     22 N22         -2.2310     0.9870     1.3600 nb         1 1MB      -0.740000
     23 C23         -2.6750     1.8250     2.2950 ca         1 1MB       0.409900
     24 C24         -3.9930     2.2220     2.3880 ca         1 1MB      -0.209000
     25 C25         -4.8930     1.7230     1.4550 ca         1 1MB       0.006000
     26 C26         -4.4480     0.8530     0.4760 ca         1 1MB      -0.278300
     27 C27         -5.3690     0.2840    -0.5550 c3         1 1MB       0.378300
     28 F28          4.8670     4.0190     0.7690 f          1 1MB      -0.165000
     29 F29         -5.4370    -1.0520    -0.4860 f          1 1MB      -0.109000
     30 F30         -4.9810     0.5900    -1.8000 f          1 1MB      -0.109000
     31 F31          4.4660    -0.6140     1.1520 f          1 1MB      -0.167000
     32 H1           4.9630     1.7570     2.0410 ha         1 1MB       0.157000
     33 H2           4.1530     3.6860    -1.7100 ha         1 1MB       0.143000
     34 H3           3.6190     1.4930    -2.7050 ha         1 1MB       0.121000
     35 H4           3.3240    -0.8140    -2.5710 h1         1 1MB       0.069700
     36 H5           4.5710    -1.5650    -1.6080 h1         1 1MB       0.069700
     37 H6           4.1080    -3.1140    -0.2940 h5         1 1MB       0.046800
     38 H7          -1.5230    -2.3650     0.7630 ha         1 1MB       0.156000
     39 H8          -0.8490     0.9750    -1.8250 ha         1 1MB       0.131000
     40 H9           1.4980     0.3770    -2.0360 ha         1 1MB       0.122000
     41 H10         -1.9360     2.1880     2.9990 h4         1 1MB       0.028100
     42 H11         -4.3130     2.9010     3.1650 ha         1 1MB       0.136000
     43 H12         -5.9310     2.0200     1.5020 ha         1 1MB       0.140000
@<TRIPOS>BOND
     1     1     2 ar  
     2     1     6 ar  
     3     1    31 1   
     4     2     3 ar  
     5     2    32 1   
     6     3     4 ar  
     7     3    28 1   
     8     4     5 ar  
     9     4    33 1   
    10     5     6 ar  
    11     5    34 1   
    12     6     7 1   
    13     7    10 1   
    14     7    35 1   
    15     7    36 1   
    16     8     9 2   
    17     8    17 1   
    18     9    10 1   
    19     9    37 1   
    20    10    11 1   
    21    11    12 ar  
    22    11    16 ar  
    23    12    13 ar  
    24    12    17 1   
    25    13    14 ar  
    26    13    38 1   
    27    14    15 ar  
    28    14    20 1   
    29    15    16 ar  
    30    15    39 1   
    31    16    40 1   
    32    17    18 2   
    33    19    27 1   
    34    20    21 1   
    35    21    22 ar  
    36    21    26 ar  
    37    22    23 ar  
    38    23    24 ar  
    39    23    41 1   
    40    24    25 ar  
    41    24    42 1   
    42    25    26 ar  
    43    25    43 1   
    44    26    27 1   
    45    27    29 1   
    46    27    30 1   
@<TRIPOS>SUBSTRUCTURE
     1 1MB         1 TEMP              0 ****  ****    0 ROOT
