@<TRIPOS>MOLECULE
1MC
   16    16     1     0     0
SMALL
No Charge or Current Charge


@<TRIPOS>ATOM
      1 N3           1.0230    -0.0650    -0.7690 nc         1 1MC      -0.769100
      2 C4           0.0150     0.0790    -1.5610 cd         1 1MC       0.780500
      3 N1          -0.4870     0.0020     1.0830 n          1 1MC      -0.310000
      4 CN1         -0.6940    -0.0450     2.5480 c3         1 1MC       0.085300
      5 C2           0.8300    -0.1090     0.5870 c          1 1MC       0.707400
      6 O2           1.7900    -0.2420     1.3280 o          1 1MC      -0.548000
      7 N4           0.3090     0.1000    -2.8450 nv         1 1MC      -1.032200
      8 C5          -1.3250     0.1920    -1.1380 cd         1 1MC      -0.490600
      9 C6          -1.5630     0.1520     0.2150 cc         1 1MC       0.021600
     10 H11         -0.1440     0.7760     3.0260 h1         1 1MC       0.053033
     11 H12         -1.7590     0.0530     2.7940 h1         1 1MC       0.053033
     12 H13         -0.3270    -1.0010     2.9430 h1         1 1MC       0.053033
     13 HN41         1.2340    -0.2540    -3.0480 hn         1 1MC       0.499000
     14 HN42        -0.4240    -0.2010    -3.4720 hn         1 1MC       0.499000
     15 H5          -2.1300     0.3100    -1.8540 ha         1 1MC       0.202000
     16 H6          -2.5300     0.2280     0.7080 h4         1 1MC       0.197000
@<TRIPOS>BOND
     1     1     2 2   
     2     1     5 1   
     3     2     7 1   
     4     2     8 1   
     5     3     4 1   
     6     3     5 1   
     7     3     9 1   
     8     4    10 1   
     9     4    11 1   
    10     4    12 1   
    11     5     6 2   
    12     7    13 1   
    13     7    14 1   
    14     8     9 2   
    15     8    15 1   
    16     9    16 1   
@<TRIPOS>SUBSTRUCTURE
     1 1MC         1 TEMP              0 ****  ****    0 ROOT
