@<TRIPOS>MOLECULE
1MC
   16    16     1     0     0
SMALL
bcc


@<TRIPOS>ATOM
      1 N3           1.0410    -0.0930    -0.7160 nc         1 1MC      -0.769100
      2 C4           0.0250     0.0050    -1.5530 cd         1 1MC       0.780500
      3 N1          -0.4700     0.0050     1.0960 n          1 1MC      -0.377000
      4 CN1         -0.6930    -0.0120     2.5330 c3         1 1MC       0.085300
      5 C2           0.8420    -0.1090     0.6180 c          1 1MC       0.849900
      6 O2           1.7560    -0.2220     1.4270 o          1 1MC      -0.623500
      7 N4           0.2890     0.0290    -2.8620 nv         1 1MC      -0.921800
      8 C5          -1.3230     0.1050    -1.1000 cd         1 1MC      -0.440600
      9 C6          -1.5060     0.0960     0.2380 cc         1 1MC       0.071600
     10 H11         -0.0350     0.7000     3.0230 h1         1 1MC       0.053033
     11 H12         -1.7250     0.2640     2.7300 h1         1 1MC       0.053033
     12 H13         -0.5130    -1.0040     2.9440 h1         1 1MC       0.053033
     13 HN41         1.2280    -0.1400    -3.1800 hn         1 1MC       0.443800
     14 HN42        -0.4480     0.0110    -3.5440 hn         1 1MC       0.443800
     15 H5          -2.1560     0.1780    -1.7820 ha         1 1MC       0.152000
     16 H6          -2.4940     0.1620     0.6730 h4         1 1MC       0.147000
@<TRIPOS>BOND
     1     1     2 2   
     2     1     5 1   
     3     2     7 1   
     4     2     8 1   
     5     3     4 1   
     6     3     5 1   
     7     3     9 1   
     8     4    10 1   
     9     4    11 1   
    10     4    12 1   
    11     5     6 2   
    12     7    13 1   
    13     7    14 1   
    14     8     9 2   
    15     8    15 1   
    16     9    16 1   
@<TRIPOS>SUBSTRUCTURE
     1 1MC         1 TEMP              0 ****  ****    0 ROOT
