@<TRIPOS>MOLECULE
1MD
   47    49     1     0     0
SMALL
bcc


@<TRIPOS>ATOM
      1 C1           1.0170     1.0980     0.4420 cp         1 1MD       0.094000
      2 C2           1.5650     2.3720     0.3020 ca         1 1MD      -0.195600
      3 C3           0.7040     3.4870     0.3220 ca         1 1MD       0.443600
      4 N4          -0.6140     3.3890     0.5070 nb         1 1MD      -0.661000
      5 C4          -0.3540     1.0180     0.6280 ca         1 1MD      -0.262900
      6 C6          -1.1030     2.1750     0.6580 ca         1 1MD       0.423600
      7 C5          -2.5430     1.8340     0.8770 c5         1 1MD       0.045700
      8 N1          -2.4910     0.3950     1.0120 n          1 1MD      -0.471800
      9 C9          -1.2570    -0.1360     0.8050 c          1 1MD       0.739100
     10 C10         -3.6710    -0.4060     1.0830 c3         1 1MD       0.032000
     11 C7          -4.2440    -0.6730    -0.3140 c          1 1MD       0.646100
     12 C13          1.2320     4.8780     0.1280 c3         1 1MD      -0.149400
     13 C14          1.8530    -0.1220     0.4150 cp         1 1MD      -0.031000
     14 C15          3.0420     2.5390     0.0600 c3         1 1MD       0.198100
     15 N16          3.3610     2.1820    -1.3140 n8         1 1MD      -0.875800
     16 C17          2.5690    -0.5080     1.5420 ca         1 1MD      -0.098000
     17 C18          3.3520    -1.6520     1.5480 ca         1 1MD      -0.127000
     18 C19          3.4130    -2.4210     0.3980 ca         1 1MD       0.042400
     19 C20          2.7120    -2.0700    -0.7440 ca         1 1MD      -0.117000
     20 C21          1.9380    -0.9220    -0.7180 ca         1 1MD       0.085400
     21 CL1          1.0490    -0.4950    -2.1330 cl         1 1MD      -0.080400
     22 CL2          4.3830    -3.8540     0.3780 cl         1 1MD      -0.108400
     23 N2          -5.3880    -1.3770    -0.3720 n          1 1MD      -0.476800
     24 C25         -6.1060    -1.8680     0.7840 c3         1 1MD       0.084800
     25 O2          -3.6610    -0.2470    -1.3000 o          1 1MD      -0.591100
     26 O1          -0.9820    -1.3210     0.7930 o          1 1MD      -0.597500
     27 C8          -6.0590    -1.5990    -1.6360 c3         1 1MD       0.084800
     28 H1          -2.9450     2.3090     1.7760 h1         1 1MD       0.076200
     29 H2          -3.1600     2.1410     0.0280 h1         1 1MD       0.076200
     30 H3          -3.4300    -1.3480     1.5800 h1         1 1MD       0.075200
     31 H4          -4.4090     0.1010     1.7080 h1         1 1MD       0.075200
     32 H5           1.8610     4.9510    -0.7590 hc         1 1MD       0.053700
     33 H6           0.4050     5.5770     0.0210 hc         1 1MD       0.053700
     34 H7           1.8380     5.1980     0.9780 hc         1 1MD       0.053700
     35 H8           3.3510     3.5500     0.3460 h1         1 1MD       0.038700
     36 H9           3.5920     1.8660     0.7200 h1         1 1MD       0.038700
     37 H10          2.8880     2.8120    -1.9500 hn         1 1MD       0.341300
     38 H11          4.3520     2.3250    -1.4690 hn         1 1MD       0.341300
     39 H13          2.5130     0.0990     2.4370 ha         1 1MD       0.137000
     40 H14          3.9010    -1.9350     2.4350 ha         1 1MD       0.149000
     41 H15          2.7650    -2.6780    -1.6370 ha         1 1MD       0.162000
     42 H16         -6.9600    -1.2300     1.0250 h1         1 1MD       0.042033
     43 H17         -6.4820    -2.8700     0.5740 h1         1 1MD       0.042033
     44 H18         -5.4730    -1.9420     1.6630 h1         1 1MD       0.042033
     45 H19         -6.1570    -2.6680    -1.8310 h1         1 1MD       0.042033
     46 H20         -7.0610    -1.1660    -1.6100 h1         1 1MD       0.042033
     47 H21         -5.5050    -1.1440    -2.4500 h1         1 1MD       0.042033
@<TRIPOS>BOND
     1     1     2 ar  
     2     1     5 ar  
     3     1    13 1   
     4     2     3 ar  
     5     2    14 1   
     6     3     4 ar  
     7     3    12 1   
     8     4     6 ar  
     9     5     6 ar  
    10     5     9 1   
    11     6     7 1   
    12     7     8 1   
    13     7    28 1   
    14     7    29 1   
    15     8     9 1   
    16     8    10 1   
    17     9    26 2   
    18    10    11 1   
    19    10    30 1   
    20    10    31 1   
    21    11    23 1   
    22    11    25 2   
    23    12    32 1   
    24    12    33 1   
    25    12    34 1   
    26    13    16 ar  
    27    13    20 ar  
    28    14    15 1   
    29    14    35 1   
    30    14    36 1   
    31    15    37 1   
    32    15    38 1   
    33    16    17 ar  
    34    16    39 1   
    35    17    18 ar  
    36    17    40 1   
    37    18    19 ar  
    38    18    22 1   
    39    19    20 ar  
    40    19    41 1   
    41    20    21 1   
    42    23    24 1   
    43    23    27 1   
    44    24    42 1   
    45    24    43 1   
    46    24    44 1   
    47    27    45 1   
    48    27    46 1   
    49    27    47 1   
@<TRIPOS>SUBSTRUCTURE
     1 1MD         1 TEMP              0 ****  ****    0 ROOT
