@<TRIPOS>MOLECULE
1MD
   47    49     1     0     0
SMALL
No Charge or Current Charge


@<TRIPOS>ATOM
      1 C1           1.0150     1.1750     0.4200 cp         1 1MD       0.094000
      2 C2           1.6670     2.4380     0.3140 ca         1 1MD      -0.130300
      3 C3           0.8750     3.6240     0.3570 ca         1 1MD       0.378300
      4 N4          -0.4760     3.6190     0.4940 nb         1 1MD      -0.661000
      5 C4          -0.3820     1.2450     0.5620 ca         1 1MD      -0.197600
      6 C6          -1.0850     2.4220     0.5930 ca         1 1MD       0.358300
      7 C5          -2.5800     2.1710     0.7550 c5         1 1MD       0.045700
      8 N1          -2.5880     0.6720     0.8180 n          1 1MD      -0.404800
      9 C9          -1.3070     0.1100     0.7030 c          1 1MD       0.596600
     10 C10         -3.8010    -0.1780     0.9360 c3         1 1MD       0.032000
     11 C7          -4.3200    -0.7870    -0.3930 c          1 1MD       0.579100
     12 C13          1.4850     5.0150     0.2490 c3         1 1MD      -0.149400
     13 C14          1.7530    -0.1200     0.3790 cp         1 1MD      -0.031000
     14 C15          3.1850     2.5180     0.1570 c3         1 1MD       0.198100
     15 N16          3.5920     2.3760    -1.2520 n8         1 1MD      -0.986200
     16 C17          2.4410    -0.5870     1.5250 ca         1 1MD      -0.080000
     17 C18          3.1340    -1.8090     1.4990 ca         1 1MD      -0.109000
     18 C19          3.1470    -2.5810     0.3270 ca         1 1MD       0.134000
     19 C20          2.4690    -2.1370    -0.8180 ca         1 1MD      -0.099000
     20 C21          1.7760    -0.9150    -0.7950 ca         1 1MD       0.177000
     21 Cl1          0.9350    -0.4000    -2.2580 cl         1 1MD      -0.172000
     22 Cl2          4.0140    -4.1110     0.2950 cl         1 1MD      -0.200000
     23 N2          -5.4440    -1.6450    -0.3410 n          1 1MD      -0.409800
     24 C25         -6.1290    -1.9540     0.9360 c3         1 1MD       0.084800
     25 O2          -3.7830    -0.5350    -1.4680 o          1 1MD      -0.591100
     26 O1          -1.0410    -1.0820     0.7310 o          1 1MD      -0.522000
     27 C8          -5.9760    -2.2550    -1.5820 c3         1 1MD       0.084800
     28 H1          -2.9650     2.6250     1.6760 h1         1 1MD       0.076200
     29 H2          -3.1450     2.5500    -0.1060 h1         1 1MD       0.076200
     30 H3          -3.5930    -1.0040     1.6270 h1         1 1MD       0.075200
     31 H4          -4.6140     0.4200     1.3660 h1         1 1MD       0.075200
     32 H5           2.1070     5.1040    -0.6490 hc         1 1MD       0.053700
     33 H6           0.7180     5.7960     0.1900 hc         1 1MD       0.053700
     34 H7           2.1100     5.2350     1.1210 hc         1 1MD       0.053700
     35 H8           3.5710     3.4700     0.5450 h1         1 1MD       0.038700
     36 H9           3.6650     1.7200     0.7390 h1         1 1MD       0.038700
     37 H10          3.2280     3.1710    -1.7900 hn         1 1MD       0.396500
     38 H11          4.6110     2.4830    -1.3180 hn         1 1MD       0.396500
     39 H13          2.4310     0.0060     2.4380 ha         1 1MD       0.119000
     40 H14          3.6590    -2.1570     2.3850 ha         1 1MD       0.131000
     41 H15          2.4800    -2.7380    -1.7220 ha         1 1MD       0.144000
     42 H16         -6.4760    -1.0260     1.4080 h1         1 1MD       0.042033
     43 H17         -6.9990    -2.6020     0.7650 h1         1 1MD       0.042033
     44 H18         -5.4380    -2.4710     1.6140 h1         1 1MD       0.042033
     45 H19         -5.1800    -2.8130    -2.0910 h1         1 1MD       0.042033
     46 H20         -6.7990    -2.9460    -1.3580 h1         1 1MD       0.042033
     47 H21         -6.3470    -1.4680    -2.2500 h1         1 1MD       0.042033
@<TRIPOS>BOND
     1     1     2 ar  
     2     1     5 ar  
     3     1    13 1   
     4     2     3 ar  
     5     2    14 1   
     6     3     4 ar  
     7     3    12 1   
     8     4     6 ar  
     9     5     6 ar  
    10     5     9 1   
    11     6     7 1   
    12     7     8 1   
    13     7    28 1   
    14     7    29 1   
    15     8     9 1   
    16     8    10 1   
    17     9    26 2   
    18    10    11 1   
    19    10    30 1   
    20    10    31 1   
    21    11    23 1   
    22    11    25 2   
    23    12    32 1   
    24    12    33 1   
    25    12    34 1   
    26    13    16 ar  
    27    13    20 ar  
    28    14    15 1   
    29    14    35 1   
    30    14    36 1   
    31    15    37 1   
    32    15    38 1   
    33    16    17 ar  
    34    16    39 1   
    35    17    18 ar  
    36    17    40 1   
    37    18    19 ar  
    38    18    22 1   
    39    19    20 ar  
    40    19    41 1   
    41    20    21 1   
    42    23    24 1   
    43    23    27 1   
    44    24    42 1   
    45    24    43 1   
    46    24    44 1   
    47    27    45 1   
    48    27    46 1   
    49    27    47 1   
@<TRIPOS>SUBSTRUCTURE
     1 1MD         1 TEMP              0 ****  ****    0 ROOT
