@<TRIPOS>MOLECULE
1ME
   19    18     1     0     0
SMALL
abcg2


@<TRIPOS>ATOM
      1 CAN          3.2360     0.5040     0.6280 c3         1 1ME       0.027900
      2 SAM          2.0020    -0.5680    -0.1440 ss         1 1ME      -0.457000
      3 CAK          0.4390     0.2640     0.3290 c3         1 1ME       0.129300
      4 CAO          0.4840     1.7600     0.0660 c3         1 1ME      -0.086100
      5 CAJ         -0.6910    -0.4220    -0.4450 c3         1 1ME       0.023500
      6 CAP         -2.0520     0.1190     0.0640 c          1 1ME       0.689000
      7 OAR         -2.6610     0.9240    -0.6670 o          1 1ME      -0.727000
      8 OAQ         -2.4220    -0.3020     1.1800 o          1 1ME      -0.727000
      9 NAI         -0.5610    -1.8690    -0.3350 n8         1 1ME      -0.993200
     10 HAN1         3.0220     0.6580     1.6860 h1         1 1ME       0.039700
     11 HAN2         4.1940    -0.0080     0.5470 h1         1 1ME       0.039700
     12 HAN3         3.3240     1.4720     0.1370 h1         1 1ME       0.039700
     13 HAK          0.2860     0.0880     1.3990 h1         1 1ME       0.070700
     14 HAO1         1.2590     2.2500     0.6530 hc         1 1ME       0.035033
     15 HAO2         0.6760     1.9640    -0.9890 hc         1 1ME       0.035033
     16 HAO3        -0.4630     2.2290     0.3340 hc         1 1ME       0.035033
     17 HAJ         -0.5760    -0.1600    -1.5020 h1         1 1ME       0.052700
     18 HAI         -0.8060    -2.1370     0.6120 hn         1 1ME       0.386000
     19 H2          -1.2590    -2.3060    -0.9240 hn         1 1ME       0.386000
@<TRIPOS>BOND
     1     1     2 1   
     2     1    10 1   
     3     1    11 1   
     4     1    12 1   
     5     2     3 1   
     6     3     4 1   
     7     3     5 1   
     8     3    13 1   
     9     4    14 1   
    10     4    15 1   
    11     4    16 1   
    12     5     6 1   
    13     5     9 1   
    14     5    17 1   
    15     6     7 1   
    16     6     8 1   
    17     9    18 1   
    18     9    19 1   
@<TRIPOS>SUBSTRUCTURE
     1 1ME         1 TEMP              0 ****  ****    0 ROOT
