@<TRIPOS>MOLECULE
1ME
   19    18     1     0     0
SMALL
No Charge or Current Charge


@<TRIPOS>ATOM
      1 CAN          3.2840     0.2710     0.7880 c3         1 1ME       0.027900
      2 SAM          2.1390    -0.1060    -0.6140 ss         1 1ME      -0.457000
      3 CAK          0.5140     0.4220     0.1310 c3         1 1ME       0.129300
      4 CAO          0.3580     1.9440    -0.0930 c3         1 1ME      -0.086100
      5 CAJ         -0.6730    -0.4210    -0.4470 c3         1 1ME       0.023500
      6 CAP         -2.0540     0.1570     0.0570 c          1 1ME       0.689000
      7 OAR         -2.8480     0.5710    -0.7760 o          1 1ME      -0.727000
      8 OAQ         -2.3240     0.0620     1.2480 o          1 1ME      -0.727000
      9 NAI         -0.4890    -1.9130    -0.2220 n8         1 1ME      -0.993200
     10 HAN1         2.9870    -0.3020     1.6750 h1         1 1ME       0.039700
     11 HAN2         4.3100    -0.0030     0.5100 h1         1 1ME       0.039700
     12 HAN3         3.2500     1.3430     1.0220 h1         1 1ME       0.039700
     13 HAK          0.5620     0.2400     1.2130 h1         1 1ME       0.070700
     14 HAO1         1.2290     2.4840     0.2960 hc         1 1ME       0.035033
     15 HAO2         0.2630     2.1720    -1.1620 hc         1 1ME       0.035033
     16 HAO3        -0.5270     2.3340     0.4240 hc         1 1ME       0.035033
     17 HAJ         -0.6630    -0.2670    -1.5350 h1         1 1ME       0.052700
     18 HAI         -0.6180    -2.1110     0.7780 hn         1 1ME       0.386000
     19 H2          -1.2680    -2.4170    -0.6630 hn         1 1ME       0.386000
@<TRIPOS>BOND
     1     1     2 1   
     2     1    10 1   
     3     1    11 1   
     4     1    12 1   
     5     2     3 1   
     6     3     4 1   
     7     3     5 1   
     8     3    13 1   
     9     4    14 1   
    10     4    15 1   
    11     4    16 1   
    12     5     6 1   
    13     5     9 1   
    14     5    17 1   
    15     6     7 1   
    16     6     8 1   
    17     9    18 1   
    18     9    19 1   
@<TRIPOS>SUBSTRUCTURE
     1 1ME         1 TEMP              0 ****  ****    0 ROOT
