@<TRIPOS>MOLECULE
1MF
   84    88     1     0     0
SMALL
bcc


@<TRIPOS>ATOM
      1 OAD          6.3560    -6.1740     2.1170 o          1 1MF      -0.835800
      2 CBK          5.5120    -5.3550     2.5320 c          1 1MF       0.924200
      3 OAB          4.7110    -5.5260     3.4710 o          1 1MF      -0.835800
      4 CBP          5.4570    -4.0100     1.8220 ca         1 1MF      -0.132600
      5 CAU          4.5450    -3.0290     2.2080 ca         1 1MF      -0.112000
      6 CAM          4.4970    -1.8020     1.5650 ca         1 1MF      -0.147000
      7 CAT          6.3170    -3.7230     0.7660 ca         1 1MF      -0.112000
      8 CAL          6.2700    -2.4940     0.1200 ca         1 1MF      -0.147000
      9 CBM          5.3640    -1.5150     0.5130 ca         1 1MF      -0.118300
     10 CBG          5.3490    -0.1610    -0.1490 c3         1 1MF       0.229100
     11 NBU          4.0060     0.3350    -0.3740 n3         1 1MF      -0.726600
     12 CBD          3.3500    -0.3740    -1.4610 c3         1 1MF       0.171800
     13 CBA          1.8310    -0.3220    -1.3890 c3         1 1MF      -0.083400
     14 CAZ          1.1780    -1.0340    -2.5670 c3         1 1MF      -0.055400
     15 CBB         -0.3380    -0.9470    -2.5320 c3         1 1MF      -0.201400
     16 CBJ         -1.0850    -1.6530    -3.6740 c          1 1MF       0.926600
     17 OAC         -0.4260    -2.3810    -4.4420 o          1 1MF      -0.857300
     18 OAA         -2.3180    -1.4460    -3.7380 o          1 1MF      -0.857300
     19 CBE          3.9760     1.7760    -0.5460 c3         1 1MF       0.179800
     20 CBC          4.0720     2.5190     0.7890 c3         1 1MF      -0.030100
     21 CBS          4.0780     4.0110     0.6040 ca         1 1MF      -0.092300
     22 CAP          5.2630     4.7310     0.6760 ca         1 1MF      -0.099000
     23 CAH          5.3010     6.1070     0.4760 ca         1 1MF      -0.176000
     24 CAI          4.1240     6.7790     0.1970 ca         1 1MF      -0.106000
     25 CAQ          2.9200     6.0880     0.1160 ca         1 1MF      -0.227000
     26 CBT          2.8940     4.7100     0.3170 ca         1 1MF       0.148100
     27 OBH          1.7710     3.9640     0.2520 os         1 1MF      -0.300900
     28 CBF          0.5380     4.6090    -0.0220 c3         1 1MF       0.192700
     29 CBL         -0.5410     3.5700    -0.0130 ca         1 1MF      -0.106300
     30 CAO         -0.9930     3.0300     1.1880 ca         1 1MF      -0.105000
     31 CAW         -2.0000     2.0800     1.2040 ca         1 1MF      -0.117000
     32 CBQ         -2.5930     1.6420     0.0170 cp         1 1MF      -0.005000
     33 CAV         -2.1310     2.1800    -1.1830 ca         1 1MF      -0.117000
     34 CAN         -1.1170     3.1250    -1.1960 ca         1 1MF      -0.105000
     35 CBR         -3.6810     0.6440     0.0330 cp         1 1MF      -0.063000
     36 CAY         -3.7960    -0.3100    -0.9780 ca         1 1MF      -0.089500
     37 CAS         -4.8190    -1.2460    -0.9670 ca         1 1MF      -0.158000
     38 CBO         -5.7450    -1.2460     0.0660 ca         1 1MF       0.095100
     39 CAR         -5.6490    -0.3080     1.0870 ca         1 1MF      -0.158000
     40 CAX         -4.6250     0.6250     1.0620 ca         1 1MF      -0.089500
     41 OBI         -6.6990    -2.2250     0.0650 os         1 1MF      -0.250200
     42 CBN         -7.9830    -1.9150     0.4170 ca         1 1MF       0.139100
     43 CAJ         -8.6210    -0.7760    -0.0620 ca         1 1MF      -0.160000
     44 CAF         -9.9450    -0.5440     0.2830 ca         1 1MF      -0.114000
     45 CAE        -10.6330    -1.4380     1.0940 ca         1 1MF      -0.164000
     46 CAG         -9.9860    -2.5750     1.5600 ca         1 1MF      -0.114000
     47 CAK         -8.6590    -2.8150     1.2300 ca         1 1MF      -0.160000
     48 H2           3.8640    -3.2290     3.0250 ha         1 1MF       0.139000
     49 H3           3.7750    -1.0550     1.8690 ha         1 1MF       0.109000
     50 H4           7.0280    -4.4710     0.4410 ha         1 1MF       0.139000
     51 H5           6.9460    -2.2980    -0.7050 ha         1 1MF       0.109000
     52 H6           5.8750     0.5410     0.5050 h1         1 1MF       0.014700
     53 H7           5.9420    -0.1990    -1.0790 h1         1 1MF       0.014700
     54 H9           3.6910    -0.0030    -2.4440 h1         1 1MF       0.032700
     55 H10          3.6550    -1.4230    -1.4150 h1         1 1MF       0.032700
     56 H11          1.5090    -0.7790    -0.4490 hc         1 1MF       0.035700
     57 H12          1.4810     0.7150    -1.3570 hc         1 1MF       0.035700
     58 H13          1.5500    -0.6010    -3.5020 hc         1 1MF       0.038700
     59 H14          1.4890    -2.0830    -2.5790 hc         1 1MF       0.038700
     60 H15         -0.7080    -1.3550    -1.5830 hc         1 1MF       0.012700
     61 H16         -0.6450     0.1050    -2.5140 hc         1 1MF       0.012700
     62 H18          4.7720     2.1260    -1.2240 h1         1 1MF       0.029200
     63 H19          3.0310     2.0510    -1.0150 h1         1 1MF       0.029200
     64 H20          3.2380     2.2040     1.4180 hc         1 1MF       0.059200
     65 H21          4.9870     2.2300     1.3120 hc         1 1MF       0.059200
     66 H22          6.1800     4.1980     0.9010 ha         1 1MF       0.131000
     67 H23          6.2390     6.6420     0.5410 ha         1 1MF       0.120000
     68 H24          4.1290     7.8500     0.0410 ha         1 1MF       0.114000
     69 H25          2.0160     6.6390    -0.1040 ha         1 1MF       0.126000
     70 H26          0.3360     5.3720     0.7380 h1         1 1MF       0.029200
     71 H27          0.5730     5.1130    -0.9940 h1         1 1MF       0.029200
     72 H28         -0.5560     3.3550     2.1250 ha         1 1MF       0.127500
     73 H29         -2.3200     1.6680     2.1520 ha         1 1MF       0.142000
     74 H30         -2.5800     1.8750    -2.1210 ha         1 1MF       0.142000
     75 H31         -0.7820     3.5310    -2.1430 ha         1 1MF       0.127500
     76 H32         -3.0840    -0.3560    -1.7930 ha         1 1MF       0.164500
     77 H33         -4.8860    -1.9830    -1.7580 ha         1 1MF       0.149500
     78 H34         -6.3640    -0.2950     1.8990 ha         1 1MF       0.149500
     79 H35         -4.5780     1.3600     1.8560 ha         1 1MF       0.164500
     80 H36         -8.0970    -0.0780    -0.7030 ha         1 1MF       0.149000
     81 H37        -10.4410     0.3410    -0.0930 ha         1 1MF       0.122000
     82 H38        -11.6650    -1.2510     1.3580 ha         1 1MF       0.120000
     83 H39        -10.5110    -3.2780     2.1930 ha         1 1MF       0.122000
     84 H40         -8.1490    -3.6970     1.5970 ha         1 1MF       0.149000
@<TRIPOS>BOND
     1     1     2 1   
     2     2     3 1   
     3     2     4 1   
     4     4     5 ar  
     5     4     7 ar  
     6     5     6 ar  
     7     5    48 1   
     8     6     9 ar  
     9     6    49 1   
    10     7     8 ar  
    11     7    50 1   
    12     8     9 ar  
    13     8    51 1   
    14     9    10 1   
    15    10    11 1   
    16    10    52 1   
    17    10    53 1   
    18    11    12 1   
    19    11    19 1   
    20    12    13 1   
    21    12    54 1   
    22    12    55 1   
    23    13    14 1   
    24    13    56 1   
    25    13    57 1   
    26    14    15 1   
    27    14    58 1   
    28    14    59 1   
    29    15    16 1   
    30    15    60 1   
    31    15    61 1   
    32    16    17 1   
    33    16    18 1   
    34    19    20 1   
    35    19    62 1   
    36    19    63 1   
    37    20    21 1   
    38    20    64 1   
    39    20    65 1   
    40    21    22 ar  
    41    21    26 ar  
    42    22    23 ar  
    43    22    66 1   
    44    23    24 ar  
    45    23    67 1   
    46    24    25 ar  
    47    24    68 1   
    48    25    26 ar  
    49    25    69 1   
    50    26    27 1   
    51    27    28 1   
    52    28    29 1   
    53    28    70 1   
    54    28    71 1   
    55    29    30 ar  
    56    29    34 ar  
    57    30    31 ar  
    58    30    72 1   
    59    31    32 ar  
    60    31    73 1   
    61    32    33 ar  
    62    32    35 1   
    63    33    34 ar  
    64    33    74 1   
    65    34    75 1   
    66    35    36 ar  
    67    35    40 ar  
    68    36    37 ar  
    69    36    76 1   
    70    37    38 ar  
    71    37    77 1   
    72    38    39 ar  
    73    38    41 1   
    74    39    40 ar  
    75    39    78 1   
    76    40    79 1   
    77    41    42 1   
    78    42    43 ar  
    79    42    47 ar  
    80    43    44 ar  
    81    43    80 1   
    82    44    45 ar  
    83    44    81 1   
    84    45    46 ar  
    85    45    82 1   
    86    46    47 ar  
    87    46    83 1   
    88    47    84 1   
@<TRIPOS>SUBSTRUCTURE
     1 1MF         1 TEMP              0 ****  ****    0 ROOT
