@<TRIPOS>MOLECULE
1MF
   84    88     1     0     0
SMALL
No Charge or Current Charge


@<TRIPOS>ATOM
      1 OAD          5.0210    -6.5700     2.0600 o          1 1MF      -0.730500
      2 CBK          4.5770    -5.6170     2.6840 c          1 1MF       0.713600
      3 OAB          4.0320    -5.7370     3.7730 o          1 1MF      -0.730500
      4 CBP          4.7110    -4.2240     2.0830 ca         1 1MF      -0.132600
      5 CAU          4.2120    -3.0880     2.7650 ca         1 1MF      -0.094000
      6 CAM          4.3390    -1.8030     2.2090 ca         1 1MF      -0.129000
      7 CAT          5.3380    -4.0310     0.8290 ca         1 1MF      -0.094000
      8 CAL          5.4630    -2.7450     0.2770 ca         1 1MF      -0.129000
      9 CBM          4.9640    -1.6210     0.9620 ca         1 1MF      -0.118300
     10 CBG          5.1040    -0.2200     0.3660 c3         1 1MF       0.229100
     11 NBU          3.8100     0.4110    -0.0100 n3         1 1MF      -0.726600
     12 CBD          3.0880    -0.3650    -1.0570 c3         1 1MF       0.171800
     13 CBA          1.5810    -0.0300    -1.1950 c3         1 1MF      -0.083400
     14 CAZ          0.8580    -0.9570    -2.1980 c3         1 1MF      -0.055400
     15 CBB         -0.6610    -0.6840    -2.3010 c3         1 1MF      -0.201400
     16 CBJ         -1.2980    -1.6100    -3.3540 c          1 1MF       0.716000
     17 OAC         -1.6730    -2.7180    -3.0000 o          1 1MF      -0.752000
     18 OAA         -1.3430    -1.2220    -4.5120 o          1 1MF      -0.752000
     19 CBE          3.9560     1.8560    -0.3470 c3         1 1MF       0.179800
     20 CBC          4.2520     2.7780     0.8610 c3         1 1MF      -0.030100
     21 CBS          4.2990     4.2610     0.4830 ca         1 1MF      -0.092300
     22 CAP          5.5330     4.9420     0.4990 ca         1 1MF      -0.081000
     23 CAH          5.5970     6.3060     0.1710 ca         1 1MF      -0.158000
     24 CAI          4.4300     7.0030    -0.1740 ca         1 1MF      -0.088000
     25 CAQ          3.1940     6.3370    -0.1940 ca         1 1MF      -0.209000
     26 CBT          3.1210     4.9630     0.1320 ca         1 1MF       0.148100
     27 OBH          1.9250     4.2720     0.1100 os         1 1MF      -0.324100
     28 CBF          0.6780     4.8840    -0.2550 c3         1 1MF       0.215900
     29 CBL         -0.4060     3.8110    -0.3150 ca         1 1MF      -0.106300
     30 CAO         -0.4820     2.8000     0.6630 ca         1 1MF      -0.087000
     31 CAW         -1.4880     1.8200     0.5970 ca         1 1MF      -0.099000
     32 CBQ         -2.4510     1.8250    -0.4430 cp         1 1MF      -0.005000
     33 CAV         -2.3600     2.8490    -1.4180 ca         1 1MF      -0.099000
     34 CAN         -1.3530     3.8270    -1.3560 ca         1 1MF      -0.087000
     35 CBR         -3.5280     0.7850    -0.5090 cp         1 1MF      -0.063000
     36 CAY         -4.0000     0.2970    -1.7550 ca         1 1MF      -0.071500
     37 CAS         -5.0100    -0.6790    -1.8170 ca         1 1MF      -0.140000
     38 CBO         -5.5780    -1.1810    -0.6370 ca         1 1MF       0.095100
     39 CAR         -5.1180    -0.7220     0.6110 ca         1 1MF      -0.140000
     40 CAX         -4.1060     0.2530     0.6720 ca         1 1MF      -0.071500
     41 OBI         -6.5570    -2.1440    -0.7250 os         1 1MF      -0.250200
     42 CBN         -7.6450    -2.1860     0.1200 ca         1 1MF       0.139100
     43 CAJ         -8.2880    -1.0030     0.5390 ca         1 1MF      -0.142000
     44 CAF         -9.4050    -1.0750     1.3900 ca         1 1MF      -0.096000
     45 CAE         -9.8850    -2.3260     1.8150 ca         1 1MF      -0.146000
     46 CAG         -9.2530    -3.5060     1.3870 ca         1 1MF      -0.096000
     47 CAK         -8.1350    -3.4350     0.5360 ca         1 1MF      -0.142000
     48 H2           3.7230    -3.1980     3.7300 ha         1 1MF       0.121000
     49 H3           3.9470    -0.9430     2.7480 ha         1 1MF       0.091000
     50 H4           5.7330    -4.8810     0.2770 ha         1 1MF       0.121000
     51 H5           5.9490    -2.6220    -0.6880 ha         1 1MF       0.091000
     52 H6           5.6250     0.3890     1.1140 h1         1 1MF       0.014700
     53 H7           5.7610    -0.2660    -0.5130 h1         1 1MF       0.014700
     54 H9           3.5760    -0.2220    -2.0310 h1         1 1MF       0.032700
     55 H10          3.1470    -1.4380    -0.8310 h1         1 1MF       0.032700
     56 H11          1.1050    -0.1230    -0.2110 hc         1 1MF       0.035700
     57 H12          1.4450     1.0070    -1.5210 hc         1 1MF       0.035700
     58 H13          1.3150    -0.8360    -3.1890 hc         1 1MF       0.038700
     59 H14          1.0140    -2.0020    -1.9010 hc         1 1MF       0.038700
     60 H15         -1.0690    -0.8970    -1.3050 hc         1 1MF       0.012700
     61 H16         -0.7620     0.3670    -2.6020 hc         1 1MF       0.012700
     62 H18          4.7540     1.9850    -1.0910 h1         1 1MF       0.029200
     63 H19          3.0390     2.2260    -0.8160 h1         1 1MF       0.029200
     64 H20          3.4790     2.6160     1.6210 hc         1 1MF       0.059200
     65 H21          5.1980     2.4870     1.3280 hc         1 1MF       0.059200
     66 H22          6.4460     4.4150     0.7670 ha         1 1MF       0.113000
     67 H23          6.5540     6.8230     0.1860 ha         1 1MF       0.102000
     68 H24          4.4830     8.0610    -0.4250 ha         1 1MF       0.096000
     69 H25          2.3070     6.9020    -0.4640 ha         1 1MF       0.108000
     70 H26          0.3940     5.6490     0.4790 h1         1 1MF       0.029200
     71 H27          0.7640     5.3640    -1.2390 h1         1 1MF       0.029200
     72 H28          0.2420     2.7670     1.4740 ha         1 1MF       0.109500
     73 H29         -1.5100     1.0420     1.3550 ha         1 1MF       0.124000
     74 H30         -3.0870     2.8960    -2.2250 ha         1 1MF       0.124000
     75 H31         -1.3150     4.6020    -2.1180 ha         1 1MF       0.109500
     76 H32         -3.5670     0.6650    -2.6820 ha         1 1MF       0.146500
     77 H33         -5.3520    -1.0460    -2.7810 ha         1 1MF       0.131500
     78 H34         -5.5390    -1.1180     1.5310 ha         1 1MF       0.131500
     79 H35         -3.7770     0.6070     1.6470 ha         1 1MF       0.146500
     80 H36         -7.9270    -0.0340     0.2040 ha         1 1MF       0.131000
     81 H37         -9.9000    -0.1630     1.7160 ha         1 1MF       0.104000
     82 H38        -10.7500    -2.3810     2.4720 ha         1 1MF       0.102000
     83 H39         -9.6280    -4.4740     1.7120 ha         1 1MF       0.104000
     84 H40         -7.6450    -4.3460     0.2020 ha         1 1MF       0.131000
@<TRIPOS>BOND
     1     1     2 1   
     2     2     3 1   
     3     2     4 1   
     4     4     5 ar  
     5     4     7 ar  
     6     5     6 ar  
     7     5    48 1   
     8     6     9 ar  
     9     6    49 1   
    10     7     8 ar  
    11     7    50 1   
    12     8     9 ar  
    13     8    51 1   
    14     9    10 1   
    15    10    11 1   
    16    10    52 1   
    17    10    53 1   
    18    11    12 1   
    19    11    19 1   
    20    12    13 1   
    21    12    54 1   
    22    12    55 1   
    23    13    14 1   
    24    13    56 1   
    25    13    57 1   
    26    14    15 1   
    27    14    58 1   
    28    14    59 1   
    29    15    16 1   
    30    15    60 1   
    31    15    61 1   
    32    16    17 1   
    33    16    18 1   
    34    19    20 1   
    35    19    62 1   
    36    19    63 1   
    37    20    21 1   
    38    20    64 1   
    39    20    65 1   
    40    21    22 ar  
    41    21    26 ar  
    42    22    23 ar  
    43    22    66 1   
    44    23    24 ar  
    45    23    67 1   
    46    24    25 ar  
    47    24    68 1   
    48    25    26 ar  
    49    25    69 1   
    50    26    27 1   
    51    27    28 1   
    52    28    29 1   
    53    28    70 1   
    54    28    71 1   
    55    29    30 ar  
    56    29    34 ar  
    57    30    31 ar  
    58    30    72 1   
    59    31    32 ar  
    60    31    73 1   
    61    32    33 ar  
    62    32    35 1   
    63    33    34 ar  
    64    33    74 1   
    65    34    75 1   
    66    35    36 ar  
    67    35    40 ar  
    68    36    37 ar  
    69    36    76 1   
    70    37    38 ar  
    71    37    77 1   
    72    38    39 ar  
    73    38    41 1   
    74    39    40 ar  
    75    39    78 1   
    76    40    79 1   
    77    41    42 1   
    78    42    43 ar  
    79    42    47 ar  
    80    43    44 ar  
    81    43    80 1   
    82    44    45 ar  
    83    44    81 1   
    84    45    46 ar  
    85    45    82 1   
    86    46    47 ar  
    87    46    83 1   
    88    47    84 1   
@<TRIPOS>SUBSTRUCTURE
     1 1MF         1 TEMP              0 ****  ****    0 ROOT
