@<TRIPOS>MOLECULE
1MH
   21    21     1     0     0
SMALL
bcc


@<TRIPOS>ATOM
      1 N           60.4150    80.8450   155.8420 n8         1 1MH      -0.861800
      2 CA          60.6560    79.4150   155.6670 c3         1 1MH       0.020500
      3 C           59.3140    78.6380   155.6840 c          1 1MH       0.927600
      4 O           59.0530    77.9570   154.6730 o          1 1MH      -0.828300
      5 CB          61.5680    78.9450   156.8050 c3         1 1MH      -0.014100
      6 C6          61.9250    77.4930   156.7020 ca         1 1MH      -0.150600
      7 C7          63.0430    77.0790   155.9810 ca         1 1MH       0.385200
      8 N8          63.4070    75.8130   155.8220 nb         1 1MH      -0.692000
      9 C9          62.6550    74.8770   156.3900 ca         1 1MH       0.371200
     10 C10         61.5210    75.1680   157.1330 ca         1 1MH      -0.251300
     11 C11         61.1530    76.4950   157.2880 ca         1 1MH      -0.064000
     12 O1          58.6160    78.7550   156.7110 o          1 1MH      -0.828300
     13 H1          61.2890    81.3420   155.7160 hn         1 1MH       0.308300
     14 H2          59.8090    81.1800   155.1030 hn         1 1MH       0.308300
     15 H4          61.1630    79.1880   154.7170 h1         1 1MH       0.006700
     16 H5          62.4840    79.5430   156.7930 hc         1 1MH       0.038200
     17 H6          61.0690    79.1450   157.7560 hc         1 1MH       0.038200
     18 H7          63.6790    77.8250   155.5130 h4         1 1MH       0.001100
     19 H8          62.9700    73.8480   156.2500 h4         1 1MH      -0.005900
     20 H9          60.9430    74.3700   157.5810 ha         1 1MH       0.125000
     21 H10         60.2700    76.7590   157.8560 ha         1 1MH       0.164000
@<TRIPOS>BOND
     1     1     2 1   
     2     1    13 1   
     3     1    14 1   
     4     2     3 1   
     5     2     5 1   
     6     2    15 1   
     7     3     4 1   
     8     3    12 1   
     9     5     6 1   
    10     5    16 1   
    11     5    17 1   
    12     6     7 ar  
    13     6    11 ar  
    14     7     8 ar  
    15     7    18 1   
    16     8     9 ar  
    17     9    10 ar  
    18     9    19 1   
    19    10    11 ar  
    20    10    20 1   
    21    11    21 1   
@<TRIPOS>SUBSTRUCTURE
     1 1MH         1 TEMP              0 ****  ****    0 ROOT
