@<TRIPOS>MOLECULE
1MI
   20    19     1     0     0
SMALL
abcg2


@<TRIPOS>ATOM
      1 C1          26.7440    40.5510    27.4650 c3         1 1MI      -0.073400
      2 C2          26.7050    38.0730    27.9410 c3         1 1MI       0.160600
      3 C3          24.5590    39.3250    27.6950 c3         1 1MI       0.160600
      4 C4          26.6880    41.8950    28.1670 c3         1 1MI       0.162600
      5 O2          25.3630    42.3780    28.2200 oh         1 1MI      -0.669000
      6 C           26.0030    39.4060    28.1710 c3         1 1MI      -0.057700
      7 O1          23.8500    38.3850    28.4740 oh         1 1MI      -0.668000
      8 O           27.9910    38.1170    28.5220 oh         1 1MI      -0.668000
      9 H1          26.3810    40.6550    26.4360 hc         1 1MI       0.052200
     10 H2          27.8040    40.3010    27.3810 hc         1 1MI       0.052200
     11 H3          26.7600    37.8870    26.8580 h1         1 1MI       0.026950
     12 H4          26.1090    37.2620    28.3750 h1         1 1MI       0.026950
     13 H5          24.5570    39.0470    26.6300 h1         1 1MI       0.026950
     14 H6          24.1030    40.3180    27.7620 h1         1 1MI       0.026950
     15 H7          27.3420    42.5960    27.6300 h1         1 1MI       0.019700
     16 H8          27.1090    41.7810    29.1750 h1         1 1MI       0.019700
     17 H9          25.3600    43.1950    28.7270 ho         1 1MI       0.442000
     18 H10         25.9970    39.6010    29.2520 hc         1 1MI       0.075700
     19 H11         22.9540    38.3250    28.1300 ho         1 1MI       0.441500
     20 H12         28.4410    37.2930    28.3170 ho         1 1MI       0.441500
@<TRIPOS>BOND
     1     1     4 1   
     2     1     6 1   
     3     1     9 1   
     4     1    10 1   
     5     2     6 1   
     6     2     8 1   
     7     2    11 1   
     8     2    12 1   
     9     3     6 1   
    10     3     7 1   
    11     3    13 1   
    12     3    14 1   
    13     4     5 1   
    14     4    15 1   
    15     4    16 1   
    16     5    17 1   
    17     6    18 1   
    18     7    19 1   
    19     8    20 1   
@<TRIPOS>SUBSTRUCTURE
     1 1MI         1 TEMP              0 ****  ****    0 ROOT
