@<TRIPOS>MOLECULE
1MI
   20    19     1     0     0
SMALL
No Charge or Current Charge


@<TRIPOS>ATOM
      1 C1          26.9070    40.5550    27.6610 c3         1 1MI      -0.073400
      2 C2          26.7240    37.9890    27.7690 c3         1 1MI       0.160600
      3 C3          24.6000    39.4130    27.9660 c3         1 1MI       0.160600
      4 C4          26.4930    41.9550    28.1770 c3         1 1MI       0.162600
      5 O2          25.3510    42.4450    27.4650 oh         1 1MI      -0.669000
      6 C           26.1250    39.3400    28.2580 c3         1 1MI      -0.057700
      7 O1          23.9030    38.3280    28.5950 oh         1 1MI      -0.668000
      8 O           28.0850    37.8450    28.2000 oh         1 1MI      -0.668000
      9 H1          26.8450    40.5370    26.5660 hc         1 1MI       0.052200
     10 H2          27.9700    40.4360    27.9030 hc         1 1MI       0.052200
     11 H3          26.6630    37.9440    26.6730 h1         1 1MI       0.026950
     12 H4          26.1290    37.1560    28.1660 h1         1 1MI       0.026950
     13 H5          24.4370    39.3930    26.8800 h1         1 1MI       0.026950
     14 H6          24.1990    40.3600    28.3480 h1         1 1MI       0.026950
     15 H7          27.3360    42.6420    28.0280 h1         1 1MI       0.019700
     16 H8          26.2920    41.9070    29.2560 h1         1 1MI       0.019700
     17 H9          25.1720    43.3520    27.8020 ho         1 1MI       0.442000
     18 H10         26.2450    39.3740    29.3470 hc         1 1MI       0.075700
     19 H11         22.9480    38.4470    28.3960 ho         1 1MI       0.441500
     20 H12         28.3980    36.9720    27.8720 ho         1 1MI       0.441500
@<TRIPOS>BOND
     1     1     4 1   
     2     1     6 1   
     3     1     9 1   
     4     1    10 1   
     5     2     6 1   
     6     2     8 1   
     7     2    11 1   
     8     2    12 1   
     9     3     6 1   
    10     3     7 1   
    11     3    13 1   
    12     3    14 1   
    13     4     5 1   
    14     4    15 1   
    15     4    16 1   
    16     5    17 1   
    17     6    18 1   
    18     7    19 1   
    19     8    20 1   
@<TRIPOS>SUBSTRUCTURE
     1 1MI         1 TEMP              0 ****  ****    0 ROOT
