@<TRIPOS>MOLECULE
1MJ
   17    18     1     0     0
SMALL
No Charge or Current Charge


@<TRIPOS>ATOM
      1 C01          2.6290     0.6560    -0.0050 cc         1 1MJ      -0.356800
      2 C02          3.0150    -0.6820    -0.0200 cd         1 1MJ      -0.140100
      3 N03          1.8490    -1.4900    -0.0220 na         1 1MJ      -0.210700
      4 C04          0.7770    -0.6060    -0.0090 ca         1 1MJ      -0.123200
      5 C05          1.2060     0.6920     0.0020 ca         1 1MJ       0.366800
      6 N06          0.4210     1.7800     0.0160 nb         1 1MJ      -0.631000
      7 C07         -0.9140     1.5330     0.0200 ca         1 1MJ       0.354900
      8 C08         -1.4610     0.2290     0.0100 ca         1 1MJ      -0.252600
      9 C09         -0.5940    -0.8890    -0.0050 ca         1 1MJ      -0.014000
     10 C10         -2.9470     0.0720     0.0150 c          1 1MJ       0.590500
     11 O11         -3.5050    -1.0210     0.0070 o          1 1MJ      -0.525100
     12 H1           3.2950     1.5140     0.0010 ha         1 1MJ       0.221000
     13 H2           4.0150    -1.1160    -0.0290 h4         1 1MJ       0.217000
     14 H3           1.8080    -2.5070    -0.0320 hn         1 1MJ       0.357000
     15 H4          -1.5620     2.4090     0.0320 h4         1 1MJ       0.019100
     16 H5          -0.9650    -1.9130    -0.0130 ha         1 1MJ       0.137000
     17 H7          -3.5390     1.0140     0.0270 h4         1 1MJ      -0.008800
@<TRIPOS>BOND
     1     1     2 2   
     2     1     5 1   
     3     1    12 1   
     4     2     3 1   
     5     2    13 1   
     6     3     4 1   
     7     3    14 1   
     8     4     5 ar  
     9     4     9 ar  
    10     5     6 ar  
    11     6     7 ar  
    12     7     8 ar  
    13     7    15 1   
    14     8     9 ar  
    15     8    10 1   
    16     9    16 1   
    17    10    11 2   
    18    10    17 1   
@<TRIPOS>SUBSTRUCTURE
     1 1MJ         1 TEMP              0 ****  ****    0 ROOT
