@<TRIPOS>MOLECULE
1MJ
   17    18     1     0     0
SMALL
abcg2


@<TRIPOS>ATOM
      1 C01          2.6320     0.6620    -0.0040 cc         1 1MJ      -0.356800
      2 C02          2.9630    -0.6680    -0.0180 cd         1 1MJ      -0.140100
      3 N03          1.8430    -1.4370    -0.0240 na         1 1MJ      -0.210700
      4 C04          0.7460    -0.6280    -0.0110 ca         1 1MJ      -0.123200
      5 C05          1.2140     0.7160     0.0010 ca         1 1MJ       0.366800
      6 N06          0.3920     1.7720     0.0150 nb         1 1MJ      -0.631000
      7 C07         -0.8960     1.5040     0.0190 ca         1 1MJ       0.354900
      8 C08         -1.4460     0.2090     0.0090 ca         1 1MJ      -0.252600
      9 C09         -0.6040    -0.9000    -0.0070 ca         1 1MJ      -0.014000
     10 C10         -2.9000     0.0630     0.0160 c          1 1MJ       0.590500
     11 O11         -3.4860    -0.9970     0.0070 o          1 1MJ      -0.525100
     12 H1           3.3190     1.4910     0.0020 ha         1 1MJ       0.221000
     13 H2           3.9380    -1.1290    -0.0280 h4         1 1MJ       0.217000
     14 H3           1.8330    -2.4440    -0.0270 hn         1 1MJ       0.357000
     15 H4          -1.5690     2.3570     0.0310 h4         1 1MJ       0.019100
     16 H5          -0.9940    -1.9110    -0.0150 ha         1 1MJ       0.137000
     17 H7          -3.4570     1.0160     0.0310 h4         1 1MJ      -0.008800
@<TRIPOS>BOND
     1     1     2 2   
     2     1     5 1   
     3     1    12 1   
     4     2     3 1   
     5     2    13 1   
     6     3     4 1   
     7     3    14 1   
     8     4     5 ar  
     9     4     9 ar  
    10     5     6 ar  
    11     6     7 ar  
    12     7     8 ar  
    13     7    15 1   
    14     8     9 ar  
    15     8    10 1   
    16     9    16 1   
    17    10    11 2   
    18    10    17 1   
@<TRIPOS>SUBSTRUCTURE
     1 1MJ         1 TEMP              0 ****  ****    0 ROOT
