@<TRIPOS>MOLECULE
1ML
   75    78     1     0     0
SMALL
abcg2


@<TRIPOS>ATOM
      1 C01         19.0860     1.5230    13.2640 ca         1 1ML      -0.094600
      2 C02         19.3830     1.7470    14.6080 ca         1 1ML      -0.134000
      3 C03         18.4350     2.2840    15.4670 ca         1 1ML       0.084100
      4 C04         17.1850     2.6600    14.9920 ca         1 1ML      -0.153000
      5 C05         16.8930     2.4640    13.6500 ca         1 1ML      -0.115000
      6 C06         17.8160     1.8790    12.7850 ca         1 1ML      -0.057000
      7 O07         18.7030     2.5260    16.7990 os         1 1ML      -0.270200
      8 C08         19.4910     1.6310    17.5000 ca         1 1ML       0.111100
      9 C09         20.4700     2.1460    18.3390 ca         1 1ML      -0.108500
     10 C10         21.2320     1.2860    19.1140 ca         1 1ML      -0.128000
     11 C11         21.0340    -0.0980    19.0560 ca         1 1ML      -0.051000
     12 C12         20.0450    -0.6050    18.2070 ca         1 1ML      -0.128000
     13 C13         19.2760     0.2600    17.4390 ca         1 1ML      -0.108500
     14 C14         20.1660     0.8630    12.4080 c          1 1ML       0.709600
     15 O15         21.3230     1.3410    12.5140 o          1 1ML      -0.707500
     16 O16         19.8160    -0.1130    11.7040 o          1 1ML      -0.707500
     17 N17         17.4400     1.6710    11.4180 n          1 1ML      -0.222400
     18 C18         17.6580     2.7700    10.4490 c3         1 1ML       0.116700
     19 C19         16.8700     4.0210    10.8280 c3         1 1ML      -0.103100
     20 C20         19.1400     3.0750    10.2550 c3         1 1ML      -0.103100
     21 C21         16.9420     0.4790    10.9870 c          1 1ML       0.648100
     22 C23         16.5950    -0.5580    12.0410 c6         1 1ML      -0.121700
     23 O22         16.7000     0.2660     9.7940 o          1 1ML      -0.646100
     24 C24         15.1070    -0.4200    12.4170 c6         1 1ML      -0.065400
     25 C25         14.7150    -1.4410    13.4840 c6         1 1ML      -0.069400
     26 C26         15.0300    -2.8780    13.0590 c6         1 1ML      -0.066700
     27 C27         16.5020    -2.9980    12.6510 c6         1 1ML      -0.069400
     28 C28         16.8920    -1.9840    11.5750 c6         1 1ML      -0.065400
     29 C29         14.6660    -3.8790    14.1510 c3         1 1ML      -0.084100
     30 N30         21.8490    -0.8940    19.8790 ns         1 1ML      -0.139000
     31 C31         21.9040    -2.2530    19.9860 c          1 1ML       0.620700
     32 O32         21.2330    -3.0110    19.2860 o          1 1ML      -0.588100
     33 C33         22.8520    -2.7790    21.0120 ca         1 1ML      -0.184600
     34 C34         23.3030    -4.0910    20.8750 ca         1 1ML      -0.033500
     35 C35         24.1780    -4.6570    21.7910 ca         1 1ML      -0.182000
     36 C36         24.6080    -3.9060    22.8880 ca         1 1ML       0.155100
     37 C37         24.1510    -2.5930    23.0470 ca         1 1ML      -0.182000
     38 C38         23.2880    -2.0400    22.1200 ca         1 1ML      -0.033500
     39 O39         25.4530    -4.3620    23.8410 os         1 1ML      -0.351100
     40 C40         25.9450    -5.7010    23.7350 c3         1 1ML       0.149900
     41 H1          20.3640     1.4850    14.9800 ha         1 1ML       0.140000
     42 H2          16.4580     3.0900    15.6670 ha         1 1ML       0.108000
     43 H3          15.9220     2.7440    13.2680 ha         1 1ML       0.104000
     44 H4          20.6300     3.2150    18.3830 ha         1 1ML       0.131000
     45 H5          21.9950     1.6900    19.7690 ha         1 1ML       0.125000
     46 H6          19.8770    -1.6670    18.1520 ha         1 1ML       0.125000
     47 H7          18.5100    -0.1390    16.7880 ha         1 1ML       0.131000
     48 H9          17.2610     2.3820     9.5140 h1         1 1ML       0.073700
     49 H10         15.8120     3.7930    10.9620 hc         1 1ML       0.038700
     50 H11         17.2470     4.4690    11.7490 hc         1 1ML       0.038700
     51 H12         16.9650     4.7610    10.0310 hc         1 1ML       0.038700
     52 H13         19.6830     2.1870     9.9340 hc         1 1ML       0.038700
     53 H14         19.2540     3.8480     9.4930 hc         1 1ML       0.038700
     54 H15         19.5950     3.4400    11.1770 hc         1 1ML       0.038700
     55 H16         17.1850    -0.3700    12.9370 hc         1 1ML       0.080700
     56 H17         14.9000     0.5920    12.7710 hc         1 1ML       0.051950
     57 H18         14.5020    -0.5750    11.5180 hc         1 1ML       0.051950
     58 H19         15.2580    -1.2190    14.4110 hc         1 1ML       0.032950
     59 H20         13.6490    -1.3470    13.7130 hc         1 1ML       0.032950
     60 H21         14.4230    -3.1000    12.1710 hc         1 1ML       0.038700
     61 H22         16.7060    -4.0130    12.2980 hc         1 1ML       0.032950
     62 H23         17.1270    -2.8420    13.5400 hc         1 1ML       0.032950
     63 H24         16.3350    -2.1900    10.6580 hc         1 1ML       0.051950
     64 H25         17.9540    -2.0720    11.3370 hc         1 1ML       0.051950
     65 H26         13.6080    -3.8080    14.4160 hc         1 1ML       0.025367
     66 H27         14.8660    -4.9050    13.8310 hc         1 1ML       0.025367
     67 H28         15.2510    -3.6910    15.0560 hc         1 1ML       0.025367
     68 H29         22.5100    -0.3750    20.4360 hn         1 1ML       0.145000
     69 H30         22.9660    -4.6740    20.0280 ha         1 1ML       0.127000
     70 H31         24.5150    -5.6730    21.6460 ha         1 1ML       0.123500
     71 H32         24.4770    -2.0250    23.9090 ha         1 1ML       0.123500
     72 H33         22.9340    -1.0310    22.2910 ha         1 1ML       0.127000
     73 H34         26.5880    -5.8480    24.5980 h1         1 1ML       0.043033
     74 H35         25.1240    -6.4210    23.7590 h1         1 1ML       0.043033
     75 H36         26.5230    -5.8320    22.8170 h1         1 1ML       0.043033
@<TRIPOS>BOND
     1     1     2 ar  
     2     1     6 ar  
     3     1    14 1   
     4     2     3 ar  
     5     2    41 1   
     6     3     4 ar  
     7     3     7 1   
     8     4     5 ar  
     9     4    42 1   
    10     5     6 ar  
    11     5    43 1   
    12     6    17 1   
    13     7     8 1   
    14     8     9 ar  
    15     8    13 ar  
    16     9    10 ar  
    17     9    44 1   
    18    10    11 ar  
    19    10    45 1   
    20    11    12 ar  
    21    11    30 1   
    22    12    13 ar  
    23    12    46 1   
    24    13    47 1   
    25    14    15 1   
    26    14    16 1   
    27    17    18 1   
    28    17    21 1   
    29    18    19 1   
    30    18    20 1   
    31    18    48 1   
    32    19    49 1   
    33    19    50 1   
    34    19    51 1   
    35    20    52 1   
    36    20    53 1   
    37    20    54 1   
    38    21    22 1   
    39    21    23 2   
    40    22    24 1   
    41    22    28 1   
    42    22    55 1   
    43    24    25 1   
    44    24    56 1   
    45    24    57 1   
    46    25    26 1   
    47    25    58 1   
    48    25    59 1   
    49    26    27 1   
    50    26    29 1   
    51    26    60 1   
    52    27    28 1   
    53    27    61 1   
    54    27    62 1   
    55    28    63 1   
    56    28    64 1   
    57    29    65 1   
    58    29    66 1   
    59    29    67 1   
    60    30    31 1   
    61    30    68 1   
    62    31    32 2   
    63    31    33 1   
    64    33    34 ar  
    65    33    38 ar  
    66    34    35 ar  
    67    34    69 1   
    68    35    36 ar  
    69    35    70 1   
    70    36    37 ar  
    71    36    39 1   
    72    37    38 ar  
    73    37    71 1   
    74    38    72 1   
    75    39    40 1   
    76    40    73 1   
    77    40    74 1   
    78    40    75 1   
@<TRIPOS>SUBSTRUCTURE
     1 1ML         1 TEMP              0 ****  ****    0 ROOT
