@<TRIPOS>MOLECULE
1ML
   75    78     1     0     0
SMALL
No Charge or Current Charge


@<TRIPOS>ATOM
      1 C01         19.1890     1.6820    13.0260 ca         1 1ML      -0.094600
      2 C02         19.5710     1.9210    14.3660 ca         1 1ML      -0.134000
      3 C03         18.6750     2.5010    15.2800 ca         1 1ML       0.084100
      4 C04         17.3910     2.8710    14.8630 ca         1 1ML      -0.153000
      5 C05         16.9950     2.6470    13.5360 ca         1 1ML      -0.115000
      6 C06         17.8870     2.0760    12.6070 ca         1 1ML      -0.057000
      7 O07         19.0430     2.7200    16.5880 os         1 1ML      -0.270200
      8 C08         19.7050     1.7750    17.3410 ca         1 1ML       0.111100
      9 C09         20.6220     2.2010    18.3130 ca         1 1ML      -0.108500
     10 C10         21.3010     1.2570    19.1050 ca         1 1ML      -0.128000
     11 C11         21.0670    -0.1220    18.9390 ca         1 1ML      -0.051000
     12 C12         20.1300    -0.5450    17.9690 ca         1 1ML      -0.128000
     13 C13         19.4510     0.4000    17.1770 ca         1 1ML      -0.108500
     14 C14         20.1970     1.0430    12.0840 c          1 1ML       0.709600
     15 O15         21.3610     1.4130    12.1580 o          1 1ML      -0.707500
     16 O16         19.8310     0.1470    11.3370 o          1 1ML      -0.707500
     17 N17         17.3950     1.7810    11.2880 n          1 1ML      -0.222400
     18 C18         17.4250     2.8640    10.2620 c3         1 1ML       0.116700
     19 C19         16.1290     3.7060    10.2900 c3         1 1ML      -0.103100
     20 C20         18.6590     3.7920    10.3800 c3         1 1ML      -0.103100
     21 C21         16.7720     0.5420    10.9530 c          1 1ML       0.648100
     22 C23         16.6190    -0.5630    12.0380 c6         1 1ML      -0.121700
     23 O22         16.2930     0.3510     9.8360 o          1 1ML      -0.646100
     24 C24         15.2750    -0.4600    12.8070 c6         1 1ML      -0.065400
     25 C25         15.2050    -1.5000    13.9520 c6         1 1ML      -0.069400
     26 C26         15.4600    -2.9430    13.4320 c6         1 1ML      -0.066700
     27 C27         16.8240    -3.0280    12.6900 c6         1 1ML      -0.069400
     28 C28         16.9080    -2.0030    11.5310 c6         1 1ML      -0.065400
     29 C29         15.3770    -3.9810    14.5820 c3         1 1ML      -0.084100
     30 N30         21.7910    -1.0140    19.7800 ns         1 1ML      -0.139000
     31 C31         21.8680    -2.4030    19.8390 c          1 1ML       0.620700
     32 O32         21.2620    -3.1440    19.0720 o          1 1ML      -0.588100
     33 C33         22.7660    -2.9700    20.9250 ca         1 1ML      -0.184600
     34 C34         22.9030    -4.3720    21.0500 ca         1 1ML      -0.033500
     35 C35         23.7250    -4.9320    22.0430 ca         1 1ML      -0.182000
     36 C36         24.4280    -4.0960    22.9330 ca         1 1ML       0.155100
     37 C37         24.2990    -2.7060    22.8170 ca         1 1ML      -0.182000
     38 C38         23.4780    -2.1400    21.8260 ca         1 1ML      -0.033500
     39 O39         25.2500    -4.5880    23.9270 os         1 1ML      -0.351100
     40 C40         25.4500    -5.9990    24.1290 c3         1 1ML       0.149900
     41 H1          20.5690     1.6440    14.6980 ha         1 1ML       0.140000
     42 H2          16.6970     3.3170    15.5710 ha         1 1ML       0.108000
     43 H3          15.9870     2.9150    13.2310 ha         1 1ML       0.104000
     44 H4          20.8100     3.2630    18.4500 ha         1 1ML       0.131000
     45 H5          22.0130     1.6040    19.8510 ha         1 1ML       0.125000
     46 H6          19.9040    -1.5950    17.8160 ha         1 1ML       0.125000
     47 H7          18.7240     0.0600    16.4440 ha         1 1ML       0.131000
     48 H9          17.4930     2.3950     9.2710 h1         1 1ML       0.073700
     49 H10         15.2460     3.0640    10.1890 hc         1 1ML       0.038700
     50 H11         16.0430     4.2650    11.2290 hc         1 1ML       0.038700
     51 H12         16.1200     4.4260     9.4630 hc         1 1ML       0.038700
     52 H13         19.5860     3.2110    10.3190 hc         1 1ML       0.038700
     53 H14         18.6690     4.5220     9.5620 hc         1 1ML       0.038700
     54 H15         18.6550     4.3460    11.3270 hc         1 1ML       0.038700
     55 H16         17.3750    -0.3500    12.8000 hc         1 1ML       0.080700
     56 H17         15.1440     0.5490    13.2180 hc         1 1ML       0.051950
     57 H18         14.4390    -0.6210    12.1110 hc         1 1ML       0.051950
     58 H19         15.9460    -1.2460    14.7240 hc         1 1ML       0.032950
     59 H20         14.2210    -1.4450    14.4370 hc         1 1ML       0.032950
     60 H21         14.6610    -3.2040    12.7240 hc         1 1ML       0.038700
     61 H22         16.9720    -4.0410    12.2920 hc         1 1ML       0.032950
     62 H23         17.6450    -2.8490    13.3980 hc         1 1ML       0.032950
     63 H24         16.1870    -2.2750    10.7470 hc         1 1ML       0.051950
     64 H25         17.9040    -2.0470    11.0690 hc         1 1ML       0.051950
     65 H26         14.4000    -3.9450    15.0770 hc         1 1ML       0.025367
     66 H27         15.5190    -5.0010    14.2050 hc         1 1ML       0.025367
     67 H28         16.1450    -3.7960    15.3430 hc         1 1ML       0.025367
     68 H29         22.3590    -0.5430    20.4700 hn         1 1ML       0.145000
     69 H30         22.3700    -5.0390    20.3740 ha         1 1ML       0.127000
     70 H31         23.8020    -6.0130    22.1040 ha         1 1ML       0.123500
     71 H32         24.8400    -2.0580    23.5020 ha         1 1ML       0.123500
     72 H33         23.4100    -1.0560    21.7760 ha         1 1ML       0.127000
     73 H34         26.1370    -6.1690    24.9670 h1         1 1ML       0.043033
     74 H35         24.5010    -6.4980    24.3600 h1         1 1ML       0.043033
     75 H36         25.8840    -6.4630    23.2340 h1         1 1ML       0.043033
@<TRIPOS>BOND
     1     1     2 ar  
     2     1     6 ar  
     3     1    14 1   
     4     2     3 ar  
     5     2    41 1   
     6     3     4 ar  
     7     3     7 1   
     8     4     5 ar  
     9     4    42 1   
    10     5     6 ar  
    11     5    43 1   
    12     6    17 1   
    13     7     8 1   
    14     8     9 ar  
    15     8    13 ar  
    16     9    10 ar  
    17     9    44 1   
    18    10    11 ar  
    19    10    45 1   
    20    11    12 ar  
    21    11    30 1   
    22    12    13 ar  
    23    12    46 1   
    24    13    47 1   
    25    14    15 1   
    26    14    16 1   
    27    17    18 1   
    28    17    21 1   
    29    18    19 1   
    30    18    20 1   
    31    18    48 1   
    32    19    49 1   
    33    19    50 1   
    34    19    51 1   
    35    20    52 1   
    36    20    53 1   
    37    20    54 1   
    38    21    22 1   
    39    21    23 2   
    40    22    24 1   
    41    22    28 1   
    42    22    55 1   
    43    24    25 1   
    44    24    56 1   
    45    24    57 1   
    46    25    26 1   
    47    25    58 1   
    48    25    59 1   
    49    26    27 1   
    50    26    29 1   
    51    26    60 1   
    52    27    28 1   
    53    27    61 1   
    54    27    62 1   
    55    28    63 1   
    56    28    64 1   
    57    29    65 1   
    58    29    66 1   
    59    29    67 1   
    60    30    31 1   
    61    30    68 1   
    62    31    32 2   
    63    31    33 1   
    64    33    34 ar  
    65    33    38 ar  
    66    34    35 ar  
    67    34    69 1   
    68    35    36 ar  
    69    35    70 1   
    70    36    37 ar  
    71    36    39 1   
    72    37    38 ar  
    73    37    71 1   
    74    38    72 1   
    75    39    40 1   
    76    40    73 1   
    77    40    74 1   
    78    40    75 1   
@<TRIPOS>SUBSTRUCTURE
     1 1ML         1 TEMP              0 ****  ****    0 ROOT
