@<TRIPOS>MOLECULE
1MM
   41    42     1     0     0
SMALL
No Charge or Current Charge


@<TRIPOS>ATOM
      1 C4          -2.9310     2.8410    -1.0280 ca         1 1MM      -0.110000
      2 C5          -3.3280     2.0940    -2.1450 ca         1 1MM      -0.063000
      3 C6          -3.3320     0.6930    -2.0850 ca         1 1MM      -0.090000
      4 C1          -2.9400     0.0110    -0.9110 ca         1 1MM      -0.039600
      5 C2          -2.5570     0.7770     0.2340 ca         1 1MM      -0.251500
      6 C3          -2.5490     2.1890     0.1550 ca         1 1MM      -0.001000
      7 S7          -2.1110     0.0030     1.8150 sy         1 1MM       1.195300
      8 N8          -0.6140    -0.6830     1.5550 ns         1 1MM      -0.588300
      9 C9           0.5110    -0.0430     1.1710 c          1 1MM       0.697100
     10 N10          1.5280    -0.9200     0.8840 ns         1 1MM      -0.315900
     11 C14          2.8380    -0.6750     0.4410 ca         1 1MM       0.323900
     12 N1           3.7350    -1.6230     0.7580 nb         1 1MM      -0.302000
     13 C12          4.9810    -1.3730     0.3120 ca         1 1MM       0.223300
     14 N5           5.3460    -0.2870    -0.4000 nb         1 1MM      -0.252000
     15 C8           4.3630     0.6000    -0.6670 ca         1 1MM       0.406300
     16 N3           3.0810     0.4440    -0.2640 nb         1 1MM      -0.303000
     17 O7A         -1.9180     1.0520     2.8230 o          1 1MM      -0.520500
     18 O7B         -3.0130    -1.1260     2.0630 o          1 1MM      -0.520500
     19 O9           0.6040     1.1710     1.0980 o          1 1MM      -0.544100
     20 C11         -2.9360    -1.5060    -0.9470 c          1 1MM       0.614700
     21 O12         -4.0730    -2.0280    -1.5100 os         1 1MM      -0.417100
     22 C13         -4.1830    -3.4600    -1.6150 c3         1 1MM       0.149900
     23 O11         -1.9970    -2.1910    -0.5600 o          1 1MM      -0.502000
     24 O4           4.7170     1.7160    -1.3930 os         1 1MM      -0.425300
     25 C10          3.7500     2.7370    -1.7200 c3         1 1MM       0.160900
     26 C7           6.0530    -2.4000     0.6250 c3         1 1MM      -0.141400
     27 H4          -2.9230     3.9270    -1.0750 ha         1 1MM       0.126000
     28 H5          -3.6260     2.6010    -3.0600 ha         1 1MM       0.123000
     29 H6          -3.6300     0.1290    -2.9670 ha         1 1MM       0.129000
     30 H3          -2.2530     2.7950     1.0110 ha         1 1MM       0.156000
     31 HN8         -0.6760    -1.6840     1.4940 hn         1 1MM       0.359500
     32 H10          1.3240    -1.8960     1.0450 hn         1 1MM       0.183000
     33 H131        -3.3730    -3.8710    -2.2320 h1         1 1MM       0.054700
     34 H132        -4.1370    -3.9290    -0.6230 h1         1 1MM       0.054700
     35 H133        -5.1380    -3.7370    -2.0780 h1         1 1MM       0.054700
     36 H5'1         2.9320     2.3230    -2.3240 h1         1 1MM       0.057033
     37 H5'2         3.3220     3.1780    -0.8100 h1         1 1MM       0.057033
     38 H5'3         4.2230     3.5410    -2.2960 h1         1 1MM       0.057033
     39 H7'1         6.0770    -3.1810    -0.1440 hc         1 1MM       0.067367
     40 H7'2         7.0480    -1.9410     0.6690 hc         1 1MM       0.067367
     41 H7'3         5.8710    -2.8850     1.5910 hc         1 1MM       0.067367
@<TRIPOS>BOND
     1     1     2 ar  
     2     1     6 ar  
     3     1    27 1   
     4     2     3 ar  
     5     2    28 1   
     6     3     4 ar  
     7     3    29 1   
     8     4     5 ar  
     9     4    20 1   
    10     5     6 ar  
    11     5     7 1   
    12     6    30 1   
    13     7     8 1   
    14     7    17 2   
    15     7    18 2   
    16     8     9 1   
    17     8    31 1   
    18     9    10 1   
    19     9    19 2   
    20    10    11 1   
    21    10    32 1   
    22    11    12 ar  
    23    11    16 ar  
    24    12    13 ar  
    25    13    14 ar  
    26    13    26 1   
    27    14    15 ar  
    28    15    16 ar  
    29    15    24 1   
    30    20    21 1   
    31    20    23 2   
    32    21    22 1   
    33    22    33 1   
    34    22    34 1   
    35    22    35 1   
    36    24    25 1   
    37    25    36 1   
    38    25    37 1   
    39    25    38 1   
    40    26    39 1   
    41    26    40 1   
    42    26    41 1   
@<TRIPOS>SUBSTRUCTURE
     1 1MM         1 TEMP              0 ****  ****    0 ROOT
