@<TRIPOS>MOLECULE
1MM
   41    42     1     0     0
SMALL
abcg2


@<TRIPOS>ATOM
      1 C4          -2.7870     2.6200    -1.4650 ca         1 1MM      -0.110000
      2 C5          -3.3590     1.8020    -2.4230 ca         1 1MM      -0.063000
      3 C6          -3.4980     0.4400    -2.1880 ca         1 1MM      -0.090000
      4 C1          -3.0500    -0.1220    -0.9990 ca         1 1MM      -0.039600
      5 C2          -2.4790     0.7180    -0.0390 ca         1 1MM      -0.251500
      6 C3          -2.3560     2.0800    -0.2620 ca         1 1MM      -0.001000
      7 S7          -2.0300     0.1080     1.5670 sy         1 1MM       1.195300
      8 N8          -0.5700    -0.6780     1.3700 ns         1 1MM      -0.588300
      9 C9           0.5770    -0.0030     0.9850 c          1 1MM       0.697100
     10 N10          1.6520    -0.8570     0.9000 ns         1 1MM      -0.315900
     11 C14          2.9210    -0.5730     0.4630 ca         1 1MM       0.323900
     12 N1           3.7660    -1.5930     0.5460 nb         1 1MM      -0.302000
     13 C12          4.9980    -1.3380     0.1180 ca         1 1MM       0.223300
     14 N5           5.4000    -0.1690    -0.3580 nb         1 1MM      -0.252000
     15 C8           4.4630     0.7700    -0.3880 ca         1 1MM       0.406300
     16 N3           3.2090     0.6300     0.0040 nb         1 1MM      -0.303000
     17 O7A         -1.8190     1.2380     2.4420 o          1 1MM      -0.520500
     18 O7B         -2.9630    -0.9330     1.9460 o          1 1MM      -0.520500
     19 O9           0.5890     1.1810     0.7710 o          1 1MM      -0.544100
     20 C11         -3.1160    -1.6080    -0.8540 c          1 1MM       0.614700
     21 O12         -4.3130    -2.0670    -1.1520 os         1 1MM      -0.417100
     22 C13         -4.4960    -3.4870    -1.1400 c3         1 1MM       0.149900
     23 O11         -2.1710    -2.2940    -0.5600 o          1 1MM      -0.502000
     24 O4           4.8630     1.9290    -0.8560 os         1 1MM      -0.425300
     25 C10          3.9230     3.0020    -0.9180 c3         1 1MM       0.160900
     26 C7           5.9850    -2.4540     0.1520 c3         1 1MM      -0.141400
     27 H4          -2.6830     3.6820    -1.6410 ha         1 1MM       0.126000
     28 H5          -3.7070     2.2180    -3.3590 ha         1 1MM       0.123000
     29 H6          -3.9460    -0.1870    -2.9470 ha         1 1MM       0.129000
     30 H3          -1.9370     2.7260     0.4950 ha         1 1MM       0.156000
     31 HN8         -0.6380    -1.6870     1.2870 hn         1 1MM       0.359500
     32 H10          1.5340    -1.8110     1.2130 hn         1 1MM       0.183000
     33 H131        -3.8520    -3.9720    -1.8720 h1         1 1MM       0.054700
     34 H132        -4.2990    -3.8990    -0.1510 h1         1 1MM       0.054700
     35 H133        -5.5360    -3.6520    -1.4030 h1         1 1MM       0.054700
     36 H5'1         3.0900     2.7630    -1.5770 h1         1 1MM       0.057033
     37 H5'2         3.5350     3.2480     0.0700 h1         1 1MM       0.057033
     38 H5'3         4.4730     3.8490    -1.3170 h1         1 1MM       0.057033
     39 H7'1         5.8930    -3.0450    -0.7620 hc         1 1MM       0.067367
     40 H7'2         7.0020    -2.0740     0.2010 hc         1 1MM       0.067367
     41 H7'3         5.7970    -3.1190     0.9920 hc         1 1MM       0.067367
@<TRIPOS>BOND
     1     1     2 ar  
     2     1     6 ar  
     3     1    27 1   
     4     2     3 ar  
     5     2    28 1   
     6     3     4 ar  
     7     3    29 1   
     8     4     5 ar  
     9     4    20 1   
    10     5     6 ar  
    11     5     7 1   
    12     6    30 1   
    13     7     8 1   
    14     7    17 2   
    15     7    18 2   
    16     8     9 1   
    17     8    31 1   
    18     9    10 1   
    19     9    19 2   
    20    10    11 1   
    21    10    32 1   
    22    11    12 ar  
    23    11    16 ar  
    24    12    13 ar  
    25    13    14 ar  
    26    13    26 1   
    27    14    15 ar  
    28    15    16 ar  
    29    15    24 1   
    30    20    21 1   
    31    20    23 2   
    32    21    22 1   
    33    22    33 1   
    34    22    34 1   
    35    22    35 1   
    36    24    25 1   
    37    25    36 1   
    38    25    37 1   
    39    25    38 1   
    40    26    39 1   
    41    26    40 1   
    42    26    41 1   
@<TRIPOS>SUBSTRUCTURE
     1 1MM         1 TEMP              0 ****  ****    0 ROOT
