@<TRIPOS>MOLECULE
1MN
   50    53     1     0     0
SMALL
No Charge or Current Charge


@<TRIPOS>ATOM
      1 C3          -0.7980     2.3790     0.0560 ca         1 1MN      -0.090000
      2 C2          -2.1220     2.6400     0.4480 ca         1 1MN      -0.086000
      3 C1          -3.1890     2.2040    -0.3540 ca         1 1MN      -0.012900
      4 Br1         -4.9910     2.5530     0.1820 br         1 1MN      -0.096100
      5 C4          -2.9350     1.5090    -1.5480 ca         1 1MN      -0.086000
      6 C5          -1.6110     1.2480    -1.9400 ca         1 1MN      -0.090000
      7 C6          -0.5330     1.6790    -1.1400 ca         1 1MN      -0.093300
      8 C7           0.9120     1.3680    -1.5670 c6         1 1MN       0.138000
      9 N1           1.7140     2.6270    -1.6510 n          1 1MN      -0.403800
     10 C8           1.2580     3.6570    -2.6090 c3         1 1MN       0.085300
     11 C9           2.6130     2.9870    -0.6200 c          1 1MN       0.534000
     12 O1           2.8870     4.1590    -0.3920 o          1 1MN      -0.553000
     13 C10          3.1720     1.8410     0.2630 c6         1 1MN       0.088300
     14 C11          4.4320     1.1940    -0.3980 c3         1 1MN      -0.050100
     15 C12          4.9360    -0.0570     0.3170 ca         1 1MN      -0.078300
     16 C13          4.9570    -1.3010    -0.3470 ca         1 1MN      -0.099000
     17 C14          5.4160    -2.4520     0.3150 ca         1 1MN      -0.109000
     18 C15          5.8620    -2.3680     1.6450 ca         1 1MN      -0.107000
     19 C16          5.8480    -1.1320     2.3110 ca         1 1MN      -0.109000
     20 C17          5.3880     0.0200     1.6500 ca         1 1MN      -0.099000
     21 O2           2.1520     0.8400     0.5280 os         1 1MN      -0.425000
     22 C18          1.5680     0.2660    -0.6670 c6         1 1MN       0.208600
     23 C19          0.5960    -0.8630    -0.2880 ca         1 1MN      -0.076300
     24 C20         -0.1240    -0.8380     0.9260 ca         1 1MN      -0.088000
     25 C21         -1.0290    -1.8680     1.2380 ca         1 1MN      -0.088000
     26 C22         -1.2190    -2.9300     0.3390 ca         1 1MN      -0.011900
     27 Br2         -2.4520    -4.3290     0.7620 br         1 1MN      -0.095100
     28 C23         -0.5070    -2.9650    -0.8700 ca         1 1MN      -0.088000
     29 C24          0.3960    -1.9340    -1.1840 ca         1 1MN      -0.088000
     30 H1           0.0200     2.7150     0.6880 ha         1 1MN       0.120000
     31 H2          -2.3200     3.1770     1.3730 ha         1 1MN       0.132000
     32 H3          -3.7630     1.1700    -2.1670 ha         1 1MN       0.132000
     33 H4          -1.4260     0.7030    -2.8630 ha         1 1MN       0.120000
     34 H5           0.8690     0.9470    -2.5820 h1         1 1MN       0.066700
     35 H6           0.5950     4.3680    -2.1000 h1         1 1MN       0.047033
     36 H7           2.1230     4.1970    -3.0170 h1         1 1MN       0.047033
     37 H8           0.7120     3.1890    -3.4380 h1         1 1MN       0.047033
     38 H9           3.4670     2.2930     1.2200 h1         1 1MN       0.103700
     39 H10          4.2400     0.9790    -1.4560 hc         1 1MN       0.063700
     40 H11          5.2380     1.9370    -0.4110 hc         1 1MN       0.063700
     41 H12          4.6140    -1.3780    -1.3770 ha         1 1MN       0.109000
     42 H13          5.4270    -3.4090    -0.2030 ha         1 1MN       0.112000
     43 H14          6.2180    -3.2600     2.1570 ha         1 1MN       0.112000
     44 H15          6.1950    -1.0650     3.3410 ha         1 1MN       0.112000
     45 H16          5.3820     0.9720     2.1750 ha         1 1MN       0.109000
     46 H17          2.3740    -0.1990    -1.2490 h1         1 1MN       0.054700
     47 H18          0.0070    -0.0170     1.6270 ha         1 1MN       0.126000
     48 H19         -1.5820    -1.8400     2.1740 ha         1 1MN       0.132500
     49 H20         -0.6560    -3.7870    -1.5670 ha         1 1MN       0.132500
     50 H21          0.9390    -1.9670    -2.1260 ha         1 1MN       0.126000
@<TRIPOS>BOND
     1     1     2 ar  
     2     1     7 ar  
     3     1    30 1   
     4     2     3 ar  
     5     2    31 1   
     6     3     4 1   
     7     3     5 ar  
     8     5     6 ar  
     9     5    32 1   
    10     6     7 ar  
    11     6    33 1   
    12     7     8 1   
    13     8     9 1   
    14     8    22 1   
    15     8    34 1   
    16     9    10 1   
    17     9    11 1   
    18    10    35 1   
    19    10    36 1   
    20    10    37 1   
    21    11    12 2   
    22    11    13 1   
    23    13    14 1   
    24    13    21 1   
    25    13    38 1   
    26    14    15 1   
    27    14    39 1   
    28    14    40 1   
    29    15    16 ar  
    30    15    20 ar  
    31    16    17 ar  
    32    16    41 1   
    33    17    18 ar  
    34    17    42 1   
    35    18    19 ar  
    36    18    43 1   
    37    19    20 ar  
    38    19    44 1   
    39    20    45 1   
    40    21    22 1   
    41    22    23 1   
    42    22    46 1   
    43    23    24 ar  
    44    23    29 ar  
    45    24    25 ar  
    46    24    47 1   
    47    25    26 ar  
    48    25    48 1   
    49    26    27 1   
    50    26    28 ar  
    51    28    29 ar  
    52    28    49 1   
    53    29    50 1   
@<TRIPOS>SUBSTRUCTURE
     1 1MN         1 TEMP              0 ****  ****    0 ROOT
