@<TRIPOS>MOLECULE
1MN
   50    53     1     0     0
SMALL
abcg2


@<TRIPOS>ATOM
      1 C3          -0.4990     2.5650     0.1610 ca         1 1MN      -0.090000
      2 C2          -1.6570     2.8160     0.8840 ca         1 1MN      -0.086000
      3 C1          -2.8490     2.2410     0.4720 ca         1 1MN      -0.012900
      4 BR1         -4.4290     2.5760     1.4530 br         1 1MN      -0.096100
      5 C4          -2.9020     1.4310    -0.6510 ca         1 1MN      -0.086000
      6 C5          -1.7350     1.1940    -1.3610 ca         1 1MN      -0.090000
      7 C6          -0.5230     1.7490    -0.9640 ca         1 1MN      -0.093300
      8 C7           0.7340     1.4090    -1.7290 c6         1 1MN       0.138000
      9 N1           1.6200     2.5510    -1.8680 n          1 1MN      -0.403800
     10 C8           1.1880     3.6060    -2.7670 c3         1 1MN       0.085300
     11 C9           2.7190     2.7380    -1.1130 c          1 1MN       0.534000
     12 O1           3.4320     3.7250    -1.2150 o          1 1MN      -0.553000
     13 C10          3.0870     1.6630    -0.0970 c6         1 1MN       0.088300
     14 C11          4.4440     1.0330    -0.4580 c3         1 1MN      -0.050100
     15 C12          4.8310    -0.0230     0.5350 ca         1 1MN      -0.078300
     16 C13          4.5220    -1.3630     0.3130 ca         1 1MN      -0.099000
     17 C14          4.8480    -2.3330     1.2500 ca         1 1MN      -0.109000
     18 C15          5.4880    -1.9770     2.4300 ca         1 1MN      -0.107000
     19 C16          5.8000    -0.6440     2.6640 ca         1 1MN      -0.109000
     20 C17          5.4720     0.3230     1.7220 ca         1 1MN      -0.099000
     21 O2           2.0880     0.6960     0.1020 os         1 1MN      -0.425000
     22 C18          1.5160     0.2490    -1.0960 c6         1 1MN       0.208600
     23 C19          0.6430    -0.9430    -0.8310 ca         1 1MN      -0.076300
     24 C20          0.0060    -1.1290     0.3900 ca         1 1MN      -0.088000
     25 C21         -0.8380    -2.2110     0.5910 ca         1 1MN      -0.088000
     26 C22         -1.0480    -3.1080    -0.4460 ca         1 1MN      -0.011900
     27 BR2         -2.2020    -4.5800    -0.1800 br         1 1MN      -0.095100
     28 C23         -0.4230    -2.9440    -1.6720 ca         1 1MN      -0.088000
     29 C24          0.4240    -1.8600    -1.8520 ca         1 1MN      -0.088000
     30 H1           0.4200     3.0280     0.4960 ha         1 1MN       0.120000
     31 H2          -1.6160     3.4550     1.7560 ha         1 1MN       0.132000
     32 H3          -3.8320     0.9850    -0.9780 ha         1 1MN       0.132000
     33 H4          -1.7760     0.5570    -2.2360 ha         1 1MN       0.120000
     34 H5           0.4500     1.0900    -2.7360 h1         1 1MN       0.066700
     35 H6           0.6230     4.3770    -2.2420 h1         1 1MN       0.047033
     36 H7           2.0430     4.0690    -3.2520 h1         1 1MN       0.047033
     37 H8           0.5490     3.1750    -3.5350 h1         1 1MN       0.047033
     38 H9           3.1940     2.1790     0.8630 h1         1 1MN       0.103700
     39 H10          4.4120     0.6120    -1.4660 hc         1 1MN       0.063700
     40 H11          5.1890     1.8300    -0.4780 hc         1 1MN       0.063700
     41 H12          4.0290    -1.6560    -0.6070 ha         1 1MN       0.109000
     42 H13          4.6030    -3.3700     1.0570 ha         1 1MN       0.112000
     43 H14          5.7450    -2.7330     3.1600 ha         1 1MN       0.112000
     44 H15          6.3020    -0.3550     3.5780 ha         1 1MN       0.112000
     45 H16          5.7220     1.3610     1.9130 ha         1 1MN       0.109000
     46 H17          2.2910    -0.0460    -1.8170 h1         1 1MN       0.054700
     47 H18          0.1510    -0.4260     1.1990 ha         1 1MN       0.126000
     48 H19         -1.3270    -2.3390     1.5480 ha         1 1MN       0.132500
     49 H20         -0.5790    -3.6460    -2.4800 ha         1 1MN       0.132500
     50 H21          0.9190    -1.7380    -2.8080 ha         1 1MN       0.126000
@<TRIPOS>BOND
     1     1     2 ar  
     2     1     7 ar  
     3     1    30 1   
     4     2     3 ar  
     5     2    31 1   
     6     3     4 1   
     7     3     5 ar  
     8     5     6 ar  
     9     5    32 1   
    10     6     7 ar  
    11     6    33 1   
    12     7     8 1   
    13     8     9 1   
    14     8    22 1   
    15     8    34 1   
    16     9    10 1   
    17     9    11 1   
    18    10    35 1   
    19    10    36 1   
    20    10    37 1   
    21    11    12 2   
    22    11    13 1   
    23    13    14 1   
    24    13    21 1   
    25    13    38 1   
    26    14    15 1   
    27    14    39 1   
    28    14    40 1   
    29    15    16 ar  
    30    15    20 ar  
    31    16    17 ar  
    32    16    41 1   
    33    17    18 ar  
    34    17    42 1   
    35    18    19 ar  
    36    18    43 1   
    37    19    20 ar  
    38    19    44 1   
    39    20    45 1   
    40    21    22 1   
    41    22    23 1   
    42    22    46 1   
    43    23    24 ar  
    44    23    29 ar  
    45    24    25 ar  
    46    24    47 1   
    47    25    26 ar  
    48    25    48 1   
    49    26    27 1   
    50    26    28 ar  
    51    28    29 ar  
    52    28    49 1   
    53    29    50 1   
@<TRIPOS>SUBSTRUCTURE
     1 1MN         1 TEMP              0 ****  ****    0 ROOT
