@<TRIPOS>MOLECULE
1MO
   50    53     1     0     0
SMALL
No Charge or Current Charge


@<TRIPOS>ATOM
      1 C3          -1.6120     1.9980     0.5290 ca         1 1MO      -0.082500
      2 C2          -2.9090     2.1370     1.0520 ca         1 1MO      -0.105000
      3 C1          -4.0180     1.7160     0.3010 ca         1 1MO       0.125000
      4 Cl1         -5.6400     1.8870     0.9580 cl         1 1MO      -0.202000
      5 C4          -3.8330     1.1580    -0.9740 ca         1 1MO      -0.105000
      6 C5          -2.5370     1.0180    -1.4990 ca         1 1MO      -0.082500
      7 C6          -1.4170     1.4360    -0.7510 ca         1 1MO      -0.103300
      8 C7          -0.0010     1.2570    -1.3250 c6         1 1MO       0.139000
      9 N1           0.7200     2.5660    -1.3480 n          1 1MO      -0.403800
     10 C8           0.1250     3.6530    -2.1560 c3         1 1MO       0.086300
     11 C9           1.6870     2.8820    -0.3660 c          1 1MO       0.534000
     12 O1           1.9170     4.0430    -0.0460 o          1 1MO      -0.554000
     13 C10          2.3840     1.6950     0.3480 c6         1 1MO       0.089300
     14 C11          3.6130     1.1930    -0.4770 c3         1 1MO      -0.050100
     15 C12          4.2450    -0.0870     0.0640 ca         1 1MO      -0.077300
     16 C13          4.2740    -1.2570    -0.7220 ca         1 1MO      -0.099000
     17 C14          4.8530    -2.4350    -0.2190 ca         1 1MO      -0.109500
     18 C15          5.4090    -2.4520     1.0710 ca         1 1MO      -0.108000
     19 C16          5.3870    -1.2880     1.8580 ca         1 1MO      -0.109500
     20 C17          4.8080    -0.1090     1.3560 ca         1 1MO      -0.099000
     21 O2           1.4480     0.6120     0.5960 os         1 1MO      -0.425000
     22 C18          0.7910     0.1180    -0.5980 c6         1 1MO       0.210600
     23 C19         -0.0810    -1.1000    -0.2520 ca         1 1MO      -0.086300
     24 C20         -0.6870    -1.2350     1.0170 ca         1 1MO      -0.080500
     25 C21         -1.5020    -2.3450     1.2990 ca         1 1MO      -0.107000
     26 C22         -1.7180    -3.3260     0.3190 ca         1 1MO       0.126000
     27 Cl2         -2.7400    -4.7120     0.6730 cl         1 1MO      -0.201000
     28 C23         -1.1200    -3.2000    -0.9450 ca         1 1MO      -0.107000
     29 C24         -0.3050    -2.0900    -1.2300 ca         1 1MO      -0.080500
     30 H1          -0.7600     2.3210     1.1220 ha         1 1MO       0.120000
     31 H2          -3.0550     2.5680     2.0390 ha         1 1MO       0.132000
     32 H3          -4.6940     0.8320    -1.5520 ha         1 1MO       0.132000
     33 H4          -2.4050     0.5780    -2.4860 ha         1 1MO       0.120000
     34 H5          -0.1110     0.9330    -2.3700 h1         1 1MO       0.066700
     35 H6          -0.5270     4.2690    -1.5250 h1         1 1MO       0.047033
     36 H7           0.9190     4.2820    -2.5790 h1         1 1MO       0.047033
     37 H8          -0.4680     3.2330    -2.9790 h1         1 1MO       0.047033
     38 H9           2.7380     2.0720     1.3180 h1         1 1MO       0.102700
     39 H10          3.3390     1.0690    -1.5310 hc         1 1MO       0.063700
     40 H11          4.3740     1.9840    -0.4830 hc         1 1MO       0.063700
     41 H12          3.8470    -1.2570    -1.7220 ha         1 1MO       0.109000
     42 H13          4.8700    -3.3350    -0.8290 ha         1 1MO       0.112000
     43 H14          5.8560    -3.3640     1.4600 ha         1 1MO       0.112000
     44 H15          5.8190    -1.2990     2.8560 ha         1 1MO       0.112000
     45 H16          4.7970     0.7860     1.9730 ha         1 1MO       0.109000
     46 H17          1.5660    -0.2390    -1.2880 h1         1 1MO       0.053700
     47 H18         -0.5340    -0.4790     1.7830 ha         1 1MO       0.126000
     48 H19         -1.9680    -2.4430     2.2760 ha         1 1MO       0.132000
     49 H20         -1.2900    -3.9600    -1.7030 ha         1 1MO       0.132000
     50 H21          0.1490    -1.9990    -2.2150 ha         1 1MO       0.126000
@<TRIPOS>BOND
     1     1     2 ar  
     2     1     7 ar  
     3     1    30 1   
     4     2     3 ar  
     5     2    31 1   
     6     3     4 1   
     7     3     5 ar  
     8     5     6 ar  
     9     5    32 1   
    10     6     7 ar  
    11     6    33 1   
    12     7     8 1   
    13     8     9 1   
    14     8    22 1   
    15     8    34 1   
    16     9    10 1   
    17     9    11 1   
    18    10    35 1   
    19    10    36 1   
    20    10    37 1   
    21    11    12 2   
    22    11    13 1   
    23    13    14 1   
    24    13    21 1   
    25    13    38 1   
    26    14    15 1   
    27    14    39 1   
    28    14    40 1   
    29    15    16 ar  
    30    15    20 ar  
    31    16    17 ar  
    32    16    41 1   
    33    17    18 ar  
    34    17    42 1   
    35    18    19 ar  
    36    18    43 1   
    37    19    20 ar  
    38    19    44 1   
    39    20    45 1   
    40    21    22 1   
    41    22    23 1   
    42    22    46 1   
    43    23    24 ar  
    44    23    29 ar  
    45    24    25 ar  
    46    24    47 1   
    47    25    26 ar  
    48    25    48 1   
    49    26    27 1   
    50    26    28 ar  
    51    28    29 ar  
    52    28    49 1   
    53    29    50 1   
@<TRIPOS>SUBSTRUCTURE
     1 1MO         1 TEMP              0 ****  ****    0 ROOT
