@<TRIPOS>MOLECULE
1MO
   50    53     1     0     0
SMALL
abcg2


@<TRIPOS>ATOM
      1 C3          -1.2920     2.2440     0.6200 ca         1 1MO      -0.082500
      2 C2          -2.3750     2.3690     1.4780 ca         1 1MO      -0.105000
      3 C1          -3.5650     1.7340     1.1640 ca         1 1MO       0.125000
      4 CL1         -4.9220     1.8890     2.2330 cl         1 1MO      -0.202000
      5 C4          -3.6910     0.9840     0.0060 ca         1 1MO      -0.105000
      6 C5          -2.5990     0.8720    -0.8410 ca         1 1MO      -0.082500
      7 C6          -1.3900     1.4920    -0.5450 ca         1 1MO      -0.103300
      8 C7          -0.2120     1.2970    -1.4710 c6         1 1MO       0.139000
      9 N1           0.6030     2.4940    -1.5890 n          1 1MO      -0.403800
     10 C8           0.0370     3.5970    -2.3440 c3         1 1MO       0.086300
     11 C9           1.7620     2.6700    -0.9280 c          1 1MO       0.534000
     12 O1           2.4210     3.6960    -1.0070 o          1 1MO      -0.554000
     13 C10          2.2710     1.5340    -0.0460 c6         1 1MO       0.089300
     14 C11          3.6280     1.0260    -0.5620 c3         1 1MO      -0.050100
     15 C12          4.1540    -0.0800     0.3060 ca         1 1MO      -0.077300
     16 C13          3.9310    -1.4140    -0.0220 ca         1 1MO      -0.099000
     17 C14          4.3860    -2.4360     0.8010 ca         1 1MO      -0.109500
     18 C15          5.0660    -2.1360     1.9740 ca         1 1MO      -0.108000
     19 C16          5.2930    -0.8080     2.3120 ca         1 1MO      -0.109500
     20 C17          4.8400     0.2090     1.4830 ca         1 1MO      -0.099000
     21 O2           1.3510     0.4890     0.1350 os         1 1MO      -0.425000
     22 C18          0.6910     0.1310    -1.0460 c6         1 1MO       0.210600
     23 C19         -0.0820    -1.1380    -0.8370 ca         1 1MO      -0.086300
     24 C20         -0.5540    -1.5160     0.4150 ca         1 1MO      -0.080500
     25 C21         -1.3120    -2.6670     0.5660 ca         1 1MO      -0.107000
     26 C22         -1.6050    -3.4380    -0.5480 ca         1 1MO       0.126000
     27 CL2         -2.5580    -4.8750    -0.3630 cl         1 1MO      -0.201000
     28 C23         -1.1450    -3.0820    -1.8050 ca         1 1MO      -0.107000
     29 C24         -0.3810    -1.9330    -1.9380 ca         1 1MO      -0.080500
     30 H1          -0.3750     2.7550     0.8800 ha         1 1MO       0.120000
     31 H2          -2.2880     2.9600     2.3800 ha         1 1MO       0.132000
     32 H3          -4.6240     0.4950    -0.2370 ha         1 1MO       0.132000
     33 H4          -2.6950     0.2820    -1.7440 ha         1 1MO       0.120000
     34 H5          -0.5920     1.0620    -2.4700 h1         1 1MO       0.066700
     35 H6          -0.5260     4.2770    -1.7030 h1         1 1MO       0.047033
     36 H7           0.8190     4.1580    -2.8470 h1         1 1MO       0.047033
     37 H8          -0.6390     3.1980    -3.0970 h1         1 1MO       0.047033
     38 H9           2.4250     1.9700     0.9460 h1         1 1MO       0.102700
     39 H10          3.5400     0.6850    -1.5970 hc         1 1MO       0.063700
     40 H11          4.3220     1.8680    -0.5710 hc         1 1MO       0.063700
     41 H12          3.4060    -1.6640    -0.9370 ha         1 1MO       0.109000
     42 H13          4.2080    -3.4670     0.5250 ha         1 1MO       0.112000
     43 H14          5.4210    -2.9310     2.6170 ha         1 1MO       0.112000
     44 H15          5.8260    -0.5620     3.2220 ha         1 1MO       0.112000
     45 H16          5.0240     1.2420     1.7560 ha         1 1MO       0.109000
     46 H17          1.4070    -0.0330    -1.8650 h1         1 1MO       0.053700
     47 H18         -0.3440    -0.9130     1.2880 ha         1 1MO       0.126000
     48 H19         -1.6730    -2.9560     1.5440 ha         1 1MO       0.132000
     49 H20         -1.3710    -3.6920    -2.6700 ha         1 1MO       0.132000
     50 H21         -0.0160    -1.6550    -2.9200 ha         1 1MO       0.126000
@<TRIPOS>BOND
     1     1     2 ar  
     2     1     7 ar  
     3     1    30 1   
     4     2     3 ar  
     5     2    31 1   
     6     3     4 1   
     7     3     5 ar  
     8     5     6 ar  
     9     5    32 1   
    10     6     7 ar  
    11     6    33 1   
    12     7     8 1   
    13     8     9 1   
    14     8    22 1   
    15     8    34 1   
    16     9    10 1   
    17     9    11 1   
    18    10    35 1   
    19    10    36 1   
    20    10    37 1   
    21    11    12 2   
    22    11    13 1   
    23    13    14 1   
    24    13    21 1   
    25    13    38 1   
    26    14    15 1   
    27    14    39 1   
    28    14    40 1   
    29    15    16 ar  
    30    15    20 ar  
    31    16    17 ar  
    32    16    41 1   
    33    17    18 ar  
    34    17    42 1   
    35    18    19 ar  
    36    18    43 1   
    37    19    20 ar  
    38    19    44 1   
    39    20    45 1   
    40    21    22 1   
    41    22    23 1   
    42    22    46 1   
    43    23    24 ar  
    44    23    29 ar  
    45    24    25 ar  
    46    24    47 1   
    47    25    26 ar  
    48    25    48 1   
    49    26    27 1   
    50    26    28 ar  
    51    28    29 ar  
    52    28    49 1   
    53    29    50 1   
@<TRIPOS>SUBSTRUCTURE
     1 1MO         1 TEMP              0 ****  ****    0 ROOT
