@<TRIPOS>MOLECULE
1MQ
   59    62     1     0     0
SMALL
No Charge or Current Charge


@<TRIPOS>ATOM
      1 C3          -2.1470     0.3940     1.2460 ca         1 1MQ      -0.067000
      2 C2          -3.4000    -0.0410     1.7120 ca         1 1MQ      -0.115500
      3 C1          -4.3860    -0.4440     0.7990 ca         1 1MQ       0.120000
      4 Cl1         -5.9520    -0.9920     1.3830 cl         1 1MQ      -0.238000
      5 C4          -4.1250    -0.4130    -0.5790 ca         1 1MQ      -0.115500
      6 C5          -2.8720     0.0210    -1.0480 ca         1 1MQ      -0.067000
      7 C6          -1.8740     0.4260    -0.1380 ca         1 1MQ      -0.089300
      8 C7          -0.4970     0.8690    -0.6570 c6         1 1MQ       0.148000
      9 N1          -0.1860     2.2660    -0.2210 n          1 1MQ      -0.369800
     10 C8          -0.9950     3.3720    -0.8250 c3         1 1MQ      -0.018100
     11 C9           0.7400     2.5290     0.8220 c          1 1MQ       0.550000
     12 O1           0.7360     3.5820     1.4460 o          1 1MQ      -0.524000
     13 C10          1.7380     1.3990     1.1930 c6         1 1MQ       0.077300
     14 C11          3.0470     1.5210     0.3490 c3         1 1MQ      -0.055100
     15 C12          3.9990     0.3370     0.4990 ca         1 1MQ      -0.076300
     16 C13          4.3280    -0.4590    -0.6180 ca         1 1MQ      -0.075500
     17 C14          5.1980    -1.5550    -0.4750 ca         1 1MQ      -0.155000
     18 C15          5.7420    -1.8550     0.7830 ca         1 1MQ       0.156000
     19 C16          5.4240    -1.0670     1.8990 ca         1 1MQ      -0.155000
     20 C17          4.5540     0.0290     1.7580 ca         1 1MQ      -0.075500
     21 O2           1.1450     0.0820     1.0340 os         1 1MQ      -0.439000
     22 C18          0.6210    -0.1630    -0.2930 c6         1 1MQ       0.198600
     23 C19          0.1590    -1.6250    -0.4210 ca         1 1MQ      -0.069300
     24 C20          0.1440    -2.2340    -1.6930 ca         1 1MQ      -0.082000
     25 C21         -0.2970    -3.5610    -1.8410 ca         1 1MQ      -0.111000
     26 C22         -0.7250    -4.2870    -0.7190 ca         1 1MQ       0.119000
     27 Cl2         -1.2790    -5.9460    -0.9050 cl         1 1MQ      -0.224000
     28 C23         -0.7140    -3.6910     0.5520 ca         1 1MQ      -0.111000
     29 C24         -0.2730    -2.3640     0.7020 ca         1 1MQ      -0.082000
     30 C25         -0.1140     4.1650    -1.7810 c2         1 1MQ      -0.142200
     31 C26         -1.8190     4.2480     0.1900 c          1 1MQ       0.746000
     32 O3          -2.6260     3.6840     0.9190 o          1 1MQ      -0.708500
     33 O4          -1.6800     5.4660     0.1810 o          1 1MQ      -0.708500
     34 C27          0.1720     3.8000    -3.0410 c2         1 1MQ      -0.299200
     35 C28          1.0700     4.5600    -3.9910 c3         1 1MQ      -0.034900
     36 F1           6.5770    -2.9080     0.9200 f          1 1MQ      -0.192000
     37 H1          -1.3880     0.7030     1.9610 ha         1 1MQ       0.134500
     38 H2          -3.6050    -0.0660     2.7790 ha         1 1MQ       0.122000
     39 H3          -4.8900    -0.7280    -1.2840 ha         1 1MQ       0.122000
     40 H4          -2.6780     0.0340    -2.1180 ha         1 1MQ       0.134500
     41 H5          -0.5510     0.8820    -1.7550 h1         1 1MQ       0.057700
     42 H6          -1.7710     2.9010    -1.4420 h1         1 1MQ       0.048700
     43 H7           1.9880     1.5340     2.2540 h1         1 1MQ       0.101700
     44 H8           2.8030     1.6850    -0.7080 hc         1 1MQ       0.065700
     45 H9           3.5730     2.4350     0.6530 hc         1 1MQ       0.065700
     46 H10          3.9100    -0.2330    -1.5960 ha         1 1MQ       0.119000
     47 H11          5.4490    -2.1690    -1.3350 ha         1 1MQ       0.124000
     48 H12          5.8500    -1.3050     2.8700 ha         1 1MQ       0.124000
     49 H13          4.3100     0.6360     2.6270 ha         1 1MQ       0.119000
     50 H14          1.4390    -0.0330    -1.0130 h1         1 1MQ       0.047700
     51 H15          0.4690    -1.6770    -2.5700 ha         1 1MQ       0.129500
     52 H16         -0.3080    -4.0250    -2.8240 ha         1 1MQ       0.125000
     53 H17         -1.0490    -4.2540     1.4190 ha         1 1MQ       0.125000
     54 H18         -0.2770    -1.9120     1.6910 ha         1 1MQ       0.129500
     55 H19          0.3160     5.0760    -1.3580 ha         1 1MQ       0.188000
     56 H21         -0.2480     2.8820    -3.4560 ha         1 1MQ       0.144000
     57 H22          1.4750     5.4670    -3.5270 hc         1 1MQ       0.019700
     58 H23          1.9180     3.9400    -4.3060 hc         1 1MQ       0.019700
     59 H24          0.5220     4.8600    -4.8920 hc         1 1MQ       0.019700
@<TRIPOS>BOND
     1     1     2 ar  
     2     1     7 ar  
     3     1    37 1   
     4     2     3 ar  
     5     2    38 1   
     6     3     4 1   
     7     3     5 ar  
     8     5     6 ar  
     9     5    39 1   
    10     6     7 ar  
    11     6    40 1   
    12     7     8 1   
    13     8     9 1   
    14     8    22 1   
    15     8    41 1   
    16     9    10 1   
    17     9    11 1   
    18    10    30 1   
    19    10    31 1   
    20    10    42 1   
    21    11    12 2   
    22    11    13 1   
    23    13    14 1   
    24    13    21 1   
    25    13    43 1   
    26    14    15 1   
    27    14    44 1   
    28    14    45 1   
    29    15    16 ar  
    30    15    20 ar  
    31    16    17 ar  
    32    16    46 1   
    33    17    18 ar  
    34    17    47 1   
    35    18    19 ar  
    36    18    36 1   
    37    19    20 ar  
    38    19    48 1   
    39    20    49 1   
    40    21    22 1   
    41    22    23 1   
    42    22    50 1   
    43    23    24 ar  
    44    23    29 ar  
    45    24    25 ar  
    46    24    51 1   
    47    25    26 ar  
    48    25    52 1   
    49    26    27 1   
    50    26    28 ar  
    51    28    29 ar  
    52    28    53 1   
    53    29    54 1   
    54    30    34 2   
    55    30    55 1   
    56    31    32 1   
    57    31    33 1   
    58    34    35 1   
    59    34    56 1   
    60    35    57 1   
    61    35    58 1   
    62    35    59 1   
@<TRIPOS>SUBSTRUCTURE
     1 1MQ         1 TEMP              0 ****  ****    0 ROOT
