@<TRIPOS>MOLECULE
1MQ
   59    62     1     0     0
SMALL
abcg2


@<TRIPOS>ATOM
      1 C3          -1.9490     0.6830     1.3890 ca         1 1MQ      -0.067000
      2 C2          -2.9890     0.1260     2.1190 ca         1 1MQ      -0.115500
      3 C1          -3.9410    -0.6410     1.4680 ca         1 1MQ       0.120000
      4 CL1         -5.2420    -1.3430     2.3780 cl         1 1MQ      -0.238000
      5 C4          -3.8790    -0.8480     0.0990 ca         1 1MQ      -0.115500
      6 C5          -2.8330    -0.2850    -0.6140 ca         1 1MQ      -0.067000
      7 C6          -1.8530     0.4730     0.0180 ca         1 1MQ      -0.089300
      8 C7          -0.6850     0.9880    -0.7870 c6         1 1MQ       0.148000
      9 N1          -0.2300     2.2980    -0.3550 n          1 1MQ      -0.369800
     10 C8          -1.0470     3.4340    -0.7300 c3         1 1MQ      -0.018100
     11 C9           0.9330     2.5110     0.2860 c          1 1MQ       0.550000
     12 O1           1.3860     3.6260     0.4950 o          1 1MQ      -0.524000
     13 C10          1.7070     1.2960     0.7860 c6         1 1MQ       0.077300
     14 C11          3.1480     1.3140     0.2540 c3         1 1MQ      -0.055100
     15 C12          3.9440     0.1610     0.7920 ca         1 1MQ      -0.076300
     16 C13          3.9600    -1.0670     0.1350 ca         1 1MQ      -0.075500
     17 C14          4.6620    -2.1500     0.6450 ca         1 1MQ      -0.155000
     18 C15          5.3490    -1.9900     1.8320 ca         1 1MQ       0.156000
     19 C16          5.3600    -0.7900     2.5160 ca         1 1MQ      -0.155000
     20 C17          4.6520     0.2800     1.9850 ca         1 1MQ      -0.075500
     21 O2           1.0710     0.0710     0.5260 os         1 1MQ      -0.439000
     22 C18          0.5080     0.0220    -0.7550 c6         1 1MQ       0.198600
     23 C19          0.1180    -1.3880    -1.0930 ca         1 1MQ      -0.069300
     24 C20         -0.0290    -1.7450    -2.4280 ca         1 1MQ      -0.082000
     25 C21         -0.4400    -3.0190    -2.7870 ca         1 1MQ      -0.111000
     26 C22         -0.6960    -3.9450    -1.7890 ca         1 1MQ       0.119000
     27 CL2         -1.2070    -5.5450    -2.2230 cl         1 1MQ      -0.224000
     28 C23         -0.5470    -3.6150    -0.4520 ca         1 1MQ      -0.111000
     29 C24         -0.1430    -2.3340    -0.1090 ca         1 1MQ      -0.082000
     30 C25         -0.5720     4.1080    -1.9840 c2         1 1MQ      -0.142200
     31 C26         -1.3260     4.4040     0.4620 c          1 1MQ       0.746000
     32 O3          -1.3790     3.8930     1.5900 o          1 1MQ      -0.708500
     33 O4          -1.5520     5.5880     0.1540 o          1 1MQ      -0.708500
     34 C27          0.4150     3.7030    -2.7760 c2         1 1MQ      -0.299200
     35 C28          0.8240     4.3910    -4.0390 c3         1 1MQ      -0.034900
     36 F1           6.0310    -3.0330     2.3370 f          1 1MQ      -0.192000
     37 H1          -1.2340     1.3110     1.8990 ha         1 1MQ       0.134500
     38 H2          -3.0560     0.2950     3.1850 ha         1 1MQ       0.122000
     39 H3          -4.6320    -1.4370    -0.4060 ha         1 1MQ       0.122000
     40 H4          -2.7810    -0.4490    -1.6830 ha         1 1MQ       0.134500
     41 H5          -1.0010     1.0820    -1.8330 h1         1 1MQ       0.057700
     42 H6          -2.0400     3.0190    -0.9560 h1         1 1MQ       0.048700
     43 H7           1.7420     1.3910     1.8760 h1         1 1MQ       0.101700
     44 H8           3.1500     1.2930    -0.8390 hc         1 1MQ       0.065700
     45 H9           3.6040     2.2590     0.5490 hc         1 1MQ       0.065700
     46 H10          3.4240    -1.1870    -0.7980 ha         1 1MQ       0.119000
     47 H11          4.6690    -3.1000     0.1280 ha         1 1MQ       0.124000
     48 H12          5.9120    -0.6880     3.4420 ha         1 1MQ       0.124000
     49 H13          4.6590     1.2260     2.5130 ha         1 1MQ       0.119000
     50 H14          1.2290     0.3640    -1.5140 h1         1 1MQ       0.047700
     51 H15          0.1790    -1.0220    -3.2080 ha         1 1MQ       0.129500
     52 H16         -0.5510    -3.2840    -3.8300 ha         1 1MQ       0.125000
     53 H17         -0.7470    -4.3470     0.3200 ha         1 1MQ       0.125000
     54 H18         -0.0410    -2.0830     0.9380 ha         1 1MQ       0.129500
     55 H19         -1.1420     4.9860    -2.2680 ha         1 1MQ       0.188000
     56 H21          0.9900     2.8180    -2.5170 ha         1 1MQ       0.144000
     57 H22          0.1970     5.2560    -4.2520 hc         1 1MQ       0.019700
     58 H23          1.8610     4.7320    -3.9860 hc         1 1MQ       0.019700
     59 H24          0.7660     3.7130    -4.8940 hc         1 1MQ       0.019700
@<TRIPOS>BOND
     1     1     2 ar  
     2     1     7 ar  
     3     1    37 1   
     4     2     3 ar  
     5     2    38 1   
     6     3     4 1   
     7     3     5 ar  
     8     5     6 ar  
     9     5    39 1   
    10     6     7 ar  
    11     6    40 1   
    12     7     8 1   
    13     8     9 1   
    14     8    22 1   
    15     8    41 1   
    16     9    10 1   
    17     9    11 1   
    18    10    30 1   
    19    10    31 1   
    20    10    42 1   
    21    11    12 2   
    22    11    13 1   
    23    13    14 1   
    24    13    21 1   
    25    13    43 1   
    26    14    15 1   
    27    14    44 1   
    28    14    45 1   
    29    15    16 ar  
    30    15    20 ar  
    31    16    17 ar  
    32    16    46 1   
    33    17    18 ar  
    34    17    47 1   
    35    18    19 ar  
    36    18    36 1   
    37    19    20 ar  
    38    19    48 1   
    39    20    49 1   
    40    21    22 1   
    41    22    23 1   
    42    22    50 1   
    43    23    24 ar  
    44    23    29 ar  
    45    24    25 ar  
    46    24    51 1   
    47    25    26 ar  
    48    25    52 1   
    49    26    27 1   
    50    26    28 ar  
    51    28    29 ar  
    52    28    53 1   
    53    29    54 1   
    54    30    34 2   
    55    30    55 1   
    56    31    32 1   
    57    31    33 1   
    58    34    35 1   
    59    34    56 1   
    60    35    57 1   
    61    35    58 1   
    62    35    59 1   
@<TRIPOS>SUBSTRUCTURE
     1 1MQ         1 TEMP              0 ****  ****    0 ROOT
