@<TRIPOS>MOLECULE
1MR
   17    17     1     0     0
SMALL
bcc


@<TRIPOS>ATOM
      1 CAA          2.8780    -1.2500     4.9160 c3         1 1MR       0.204100
      2 NAG          1.9230    -0.6130     4.0470 nu         1 1MR      -0.766600
      3 CAH          1.8990    -0.8420     2.6970 ca         1 1MR       0.178600
      4 CAE          0.7880    -0.4370     1.9380 ca         1 1MR      -0.205500
      5 CAC          0.7590    -0.6220     0.5680 ca         1 1MR      -0.085500
      6 CAB          1.8290    -1.2150    -0.0980 ca         1 1MR      -0.182000
      7 CAD          2.9270    -1.6220     0.6460 ca         1 1MR      -0.085500
      8 CAF          2.9700    -1.4480     2.0230 ca         1 1MR      -0.205500
      9 HAA1         3.8950    -0.9110     4.7080 h1         1 1MR       0.033033
     10 HAA2         2.8690    -2.3440     4.8440 h1         1 1MR       0.033033
     11 HAA3         2.6480    -0.9770     5.9430 h1         1 1MR       0.033033
     12 HNAG         1.0310    -0.4050     4.4650 hn         1 1MR       0.414800
     13 HAE         -0.0560     0.0250     2.4360 ha         1 1MR       0.127000
     14 HAC         -0.1130    -0.2990     0.0120 ha         1 1MR       0.124500
     15 HAB          1.8020    -1.3570    -1.1700 ha         1 1MR       0.130000
     16 HAD          3.7700    -2.0890     0.1530 ha         1 1MR       0.124500
     17 HAF          3.8420    -1.7850     2.5670 ha         1 1MR       0.127000
@<TRIPOS>BOND
     1     1     2 1   
     2     1     9 1   
     3     1    10 1   
     4     1    11 1   
     5     2     3 1   
     6     2    12 1   
     7     3     4 ar  
     8     3     8 ar  
     9     4     5 ar  
    10     4    13 1   
    11     5     6 ar  
    12     5    14 1   
    13     6     7 ar  
    14     6    15 1   
    15     7     8 ar  
    16     7    16 1   
    17     8    17 1   
@<TRIPOS>SUBSTRUCTURE
     1 1MR         1 TEMP              0 ****  ****    0 ROOT
