@<TRIPOS>MOLECULE
1MR
   17    17     1     0     0
SMALL
No Charge or Current Charge


@<TRIPOS>ATOM
      1 CAA          2.9080    -1.2200     5.0080 c3         1 1MR       0.204100
      2 NAG          1.8650    -0.7910     4.0590 nu         1 1MR      -0.960200
      3 CAH          1.8720    -0.9300     2.6700 ca         1 1MR       0.317000
      4 CAE          0.7750    -0.4540     1.9330 ca         1 1MR      -0.187500
      5 CAC          0.7490    -0.5770     0.5330 ca         1 1MR      -0.067500
      6 CAB          1.8270    -1.1810    -0.1350 ca         1 1MR      -0.164000
      7 CAD          2.9280    -1.6600     0.5940 ca         1 1MR      -0.067500
      8 CAF          2.9490    -1.5340     1.9940 ca         1 1MR      -0.187500
      9 HAA1         3.8590    -0.7160     4.7890 h1         1 1MR       0.033033
     10 HAA2         3.0640    -2.3060     4.9440 h1         1 1MR       0.033033
     11 HAA3         2.6150    -0.9730     6.0370 h1         1 1MR       0.033033
     12 HNAG         1.0370    -0.3390     4.4540 hn         1 1MR       0.470000
     13 HAE         -0.0620     0.0140     2.4440 ha         1 1MR       0.109000
     14 HAC         -0.1040    -0.2060    -0.0320 ha         1 1MR       0.106500
     15 HAB          1.8090    -1.2780    -1.2190 ha         1 1MR       0.112000
     16 HAD          3.7630    -2.1280     0.0760 ha         1 1MR       0.106500
     17 HAF          3.8060    -1.9090     2.5460 ha         1 1MR       0.109000
@<TRIPOS>BOND
     1     1     2 1   
     2     1     9 1   
     3     1    10 1   
     4     1    11 1   
     5     2     3 1   
     6     2    12 1   
     7     3     4 ar  
     8     3     8 ar  
     9     4     5 ar  
    10     4    13 1   
    11     5     6 ar  
    12     5    14 1   
    13     6     7 ar  
    14     6    15 1   
    15     7     8 ar  
    16     7    16 1   
    17     8    17 1   
@<TRIPOS>SUBSTRUCTURE
     1 1MR         1 TEMP              0 ****  ****    0 ROOT
