@<TRIPOS>MOLECULE
1MS
   34    35     1     0     0
SMALL
No Charge or Current Charge


@<TRIPOS>ATOM
      1 O8          -3.6700     1.1620     2.5880 o          1 1MS      -0.383000
      2 N7          -2.7010     0.8220     1.8960 no         1 1MS       0.696200
      3 O9          -1.5540     1.2570     2.0630 o          1 1MS      -0.383000
      4 C1          -2.8670    -0.3830     1.0200 ca         1 1MS      -0.074200
      5 C6          -3.4450    -1.5400     1.5900 ca         1 1MS      -0.083000
      6 C5          -3.6010    -2.7120     0.8340 ca         1 1MS      -0.059000
      7 C4          -3.1810    -2.7440    -0.5030 ca         1 1MS      -0.099000
      8 C3          -2.6140    -1.6040    -1.0940 ca         1 1MS       0.008000
      9 C2          -2.4560    -0.4100    -0.3510 ca         1 1MS      -0.240500
     10 S10         -1.7590     1.0420    -1.1950 sy         1 1MS       1.202300
     11 O11         -1.6650     0.7580    -2.6320 o          1 1MS      -0.513500
     12 O12         -2.4290     2.2500    -0.7040 o          1 1MS      -0.513500
     13 N13         -0.1920     1.1600    -0.6380 ns         1 1MS      -0.599300
     14 C14          0.7740     0.2200    -0.7320 c          1 1MS       0.699100
     15 O15          0.6310    -0.8330    -1.3280 o          1 1MS      -0.552100
     16 N16          1.9250     0.5990    -0.0840 ns         1 1MS      -0.314900
     17 C18          3.1510    -0.0780     0.0690 ca         1 1MS       0.266900
     18 N17          3.1480    -1.4260     0.0050 nb         1 1MS      -0.176000
     19 C23          4.3420    -2.0280     0.1710 ca         1 1MS       0.139900
     20 C22          5.5120    -1.2830     0.4010 ca         1 1MS      -0.253000
     21 C20          5.3980     0.1180     0.4560 ca         1 1MS       0.166300
     22 C21          6.6020     1.0080     0.6970 c3         1 1MS      -0.153400
     23 N19          4.2070     0.7280     0.2890 nb         1 1MS      -0.240000
     24 H6          -3.7660    -1.5350     2.6310 ha         1 1MS       0.146000
     25 H5          -4.0430    -3.5970     1.2870 ha         1 1MS       0.131000
     26 H4          -3.2980    -3.6550    -1.0860 ha         1 1MS       0.133000
     27 H3          -2.3010    -1.6580    -2.1360 ha         1 1MS       0.164000
     28 HN13        -0.0530     1.9850    -0.0830 hn         1 1MS       0.359500
     29 HN16         1.9120     1.5240     0.3230 hn         1 1MS       0.179000
     30 H23          4.3600    -3.1160     0.1190 h4         1 1MS       0.030100
     31 H22          6.4710    -1.7780     0.5320 ha         1 1MS       0.139000
     32 H21          6.9730     1.4250    -0.2470 hc         1 1MS       0.059700
     33 H21A         6.3530     1.8450     1.3600 hc         1 1MS       0.059700
     34 H21B         7.4230     0.4510     1.1630 hc         1 1MS       0.059700
@<TRIPOS>BOND
     1     1     2 1   
     2     2     3 1   
     3     2     4 1   
     4     4     5 ar  
     5     4     9 ar  
     6     5     6 ar  
     7     5    24 1   
     8     6     7 ar  
     9     6    25 1   
    10     7     8 ar  
    11     7    26 1   
    12     8     9 ar  
    13     8    27 1   
    14     9    10 1   
    15    10    11 2   
    16    10    12 2   
    17    10    13 1   
    18    13    14 1   
    19    13    28 1   
    20    14    15 2   
    21    14    16 1   
    22    16    17 1   
    23    16    29 1   
    24    17    18 ar  
    25    17    23 ar  
    26    18    19 ar  
    27    19    20 ar  
    28    19    30 1   
    29    20    21 ar  
    30    20    31 1   
    31    21    22 1   
    32    21    23 ar  
    33    22    32 1   
    34    22    33 1   
    35    22    34 1   
@<TRIPOS>SUBSTRUCTURE
     1 1MS         1 TEMP              0 ****  ****    0 ROOT
