@<TRIPOS>MOLECULE
1MS
   34    35     1     0     0
SMALL
abcg2


@<TRIPOS>ATOM
      1 O8          -3.8490     1.3780     2.2670 o          1 1MS      -0.383000
      2 N7          -2.8420     0.9500     1.7650 no         1 1MS       0.696200
      3 O9          -1.7500     1.4520     1.8550 o          1 1MS      -0.383000
      4 C1          -2.9410    -0.3070     1.0320 ca         1 1MS      -0.074200
      5 C6          -3.5840    -1.3460     1.6740 ca         1 1MS      -0.083000
      6 C5          -3.6450    -2.5900     1.0620 ca         1 1MS      -0.059000
      7 C4          -3.0880    -2.7740    -0.1910 ca         1 1MS      -0.099000
      8 C3          -2.4730    -1.7160    -0.8460 ca         1 1MS       0.008000
      9 C2          -2.3810    -0.4760    -0.2340 ca         1 1MS      -0.240500
     10 S10         -1.7170     0.8700    -1.1930 sy         1 1MS       1.202300
     11 O11         -1.6550     0.4310    -2.5680 o          1 1MS      -0.513500
     12 O12         -2.4400     2.0770    -0.8520 o          1 1MS      -0.513500
     13 N13         -0.1730     1.1170    -0.6340 ns         1 1MS      -0.599300
     14 C14          0.8220     0.1520    -0.7470 c          1 1MS       0.699100
     15 O15          0.6030    -0.9250    -1.2430 o          1 1MS      -0.552100
     16 N16          2.0070     0.5920    -0.2340 ns         1 1MS      -0.314900
     17 C18          3.2180    -0.0800    -0.1690 ca         1 1MS       0.266900
     18 N17          3.3330    -1.2870    -0.6870 nb         1 1MS      -0.176000
     19 C23          4.5360    -1.8420    -0.5760 ca         1 1MS       0.139900
     20 C22          5.6010    -1.2130     0.0350 ca         1 1MS      -0.253000
     21 C20          5.3670     0.0620     0.5450 ca         1 1MS       0.166300
     22 C21          6.4440     0.8590     1.2050 c3         1 1MS      -0.153400
     23 N19          4.1680     0.6210     0.4390 nb         1 1MS      -0.240000
     24 H6          -4.0170    -1.2000     2.6540 ha         1 1MS       0.146000
     25 H5          -4.1340    -3.4090     1.5690 ha         1 1MS       0.131000
     26 H4          -3.1400    -3.7390    -0.6760 ha         1 1MS       0.133000
     27 H3          -2.0770    -1.8660    -1.8390 ha         1 1MS       0.164000
     28 HN13        -0.0400     1.9640    -0.0950 hn         1 1MS       0.359500
     29 HN16         2.0470     1.5220     0.1590 hn         1 1MS       0.179000
     30 H23          4.6480    -2.8350    -0.9970 h4         1 1MS       0.030100
     31 H22          6.5680    -1.6880     0.1120 ha         1 1MS       0.139000
     32 H21          6.9060     1.5300     0.4780 hc         1 1MS       0.059700
     33 H21A         6.0380     1.4730     2.0070 hc         1 1MS       0.059700
     34 H21B         7.2260     0.2170     1.6050 hc         1 1MS       0.059700
@<TRIPOS>BOND
     1     1     2 1   
     2     2     3 1   
     3     2     4 1   
     4     4     5 ar  
     5     4     9 ar  
     6     5     6 ar  
     7     5    24 1   
     8     6     7 ar  
     9     6    25 1   
    10     7     8 ar  
    11     7    26 1   
    12     8     9 ar  
    13     8    27 1   
    14     9    10 1   
    15    10    11 2   
    16    10    12 2   
    17    10    13 1   
    18    13    14 1   
    19    13    28 1   
    20    14    15 2   
    21    14    16 1   
    22    16    17 1   
    23    16    29 1   
    24    17    18 ar  
    25    17    23 ar  
    26    18    19 ar  
    27    19    20 ar  
    28    19    30 1   
    29    20    21 ar  
    30    20    31 1   
    31    21    22 1   
    32    21    23 ar  
    33    22    32 1   
    34    22    33 1   
    35    22    34 1   
@<TRIPOS>SUBSTRUCTURE
     1 1MS         1 TEMP              0 ****  ****    0 ROOT
