@<TRIPOS>MOLECULE
1MT
   63    66     1     0     0
SMALL
No Charge or Current Charge


@<TRIPOS>ATOM
      1 Cl1         -0.9140    -5.3350     0.2080 cl         1 1MT      -0.166000
      2 C1          -1.2120    -3.7980     1.0200 ca         1 1MT       0.065000
      3 C2          -0.9410    -2.5770     0.3720 ca         1 1MT       0.188000
      4 C3          -1.7200    -3.8030     2.3270 ca         1 1MT      -0.074000
      5 C4          -1.9510    -2.5860     2.9860 ca         1 1MT      -0.120000
      6 C5          -1.6820    -1.3670     2.3420 ca         1 1MT      -0.080000
      7 C6          -1.1760    -1.3370     1.0170 ca         1 1MT      -0.112300
      8 C7          -0.8530    -0.0250     0.2620 c5         1 1MT      -0.013400
      9 C8          -1.7660     1.1860     0.7010 c5         1 1MT       0.093500
     10 C9           0.4510     2.0130     0.5550 c5         1 1MT       0.193500
     11 C10          1.6400     2.8300     1.1470 c3         1 1MT      -0.069400
     12 C11          1.7510     4.3430     0.7620 c3         1 1MT      -0.035000
     13 C12          2.9880     4.9400     1.4860 c3         1 1MT      -0.088433
     14 C13          1.9510     4.5080    -0.7690 c3         1 1MT      -0.088433
     15 C14          0.4930     5.1380     1.2040 c3         1 1MT      -0.088433
     16 C15         -2.5420     1.7060    -0.5770 c          1 1MT       0.604100
     17 O1          -2.0620     2.1360    -1.6190 o          1 1MT      -0.579100
     18 N1          -3.9050     1.6070    -0.3690 ns         1 1MT      -0.513900
     19 C17         -4.9260     1.9650    -1.3630 c3         1 1MT       0.103000
     20 C18          0.5840     0.4730     0.6520 c5         1 1MT      -0.126700
     21 C19          1.6030    -0.0540    -0.3600 ca         1 1MT      -0.133300
     22 C20          1.6700     0.1070    -1.7540 ca         1 1MT      -0.036000
     23 C21          2.7360    -0.5100    -2.4450 ca         1 1MT      -0.132000
     24 C22          3.7050    -1.2650    -1.7450 ca         1 1MT       0.156000
     25 Cl2          5.0240    -2.0230    -2.6260 cl         1 1MT      -0.196000
     26 C23          3.6260    -1.4110    -0.3460 ca         1 1MT      -0.143000
     27 C24          2.5590    -0.7900     0.3100 ca         1 1MT      -0.019000
     28 N2           2.2540    -0.7530     1.6670 ns         1 1MT      -0.140000
     29 C25          1.1480    -0.0170     2.0400 c          1 1MT       0.576000
     30 O2           0.7910     0.2300     3.1860 o          1 1MT      -0.540000
     31 F1          -0.4440    -2.6010    -0.8880 f          1 1MT      -0.158000
     32 C16         -5.0210     0.9390    -2.5220 c3         1 1MT       0.132800
     33 N3          -6.0820     1.2750    -3.4980 n8         1 1MT      -0.995200
     34 N4          -0.8170     2.1990     1.2970 n7         1 1MT      -0.816400
     35 H1          -1.9270    -4.7450     2.8290 ha         1 1MT       0.134000
     36 H2          -2.3350    -2.5880     4.0040 ha         1 1MT       0.126000
     37 H3          -1.8490    -0.4500     2.9010 ha         1 1MT       0.132000
     38 H4          -0.9350    -0.1670    -0.8220 hc         1 1MT       0.088700
     39 H5          -2.5260     0.9070     1.4410 h1         1 1MT       0.064700
     40 H6           0.3250     2.3020    -0.4970 h1         1 1MT       0.086700
     41 H7           1.6230     2.7500     2.2400 hc         1 1MT       0.046700
     42 H8           2.5740     2.3460     0.8350 hc         1 1MT       0.046700
     43 H9           3.9060     4.4160     1.1920 hc         1 1MT       0.036256
     44 H10          3.1150     6.0020     1.2410 hc         1 1MT       0.036256
     45 H11          2.8850     4.8560     2.5750 hc         1 1MT       0.036256
     46 H12          1.0630     4.1940    -1.3300 hc         1 1MT       0.036256
     47 H13          2.1440     5.5570    -1.0260 hc         1 1MT       0.036256
     48 H14          2.8040     3.9140    -1.1200 hc         1 1MT       0.036256
     49 H15          0.2920     4.9930     2.2720 hc         1 1MT       0.036256
     50 H16          0.6270     6.2120     1.0280 hc         1 1MT       0.036256
     51 H17         -0.3950     4.8230     0.6420 hc         1 1MT       0.036256
     52 H18         -4.2120     1.2530     0.5290 hn         1 1MT       0.309500
     53 H19         -5.8970     2.0270    -0.8550 h1         1 1MT       0.060700
     54 H20         -4.6930     2.9580    -1.7690 h1         1 1MT       0.060700
     55 H21          0.9230     0.6870    -2.2910 ha         1 1MT       0.131000
     56 H22          2.8120    -0.4050    -3.5240 ha         1 1MT       0.136000
     57 H23          4.3700    -1.9840     0.2010 ha         1 1MT       0.138000
     58 H24          2.8620    -1.1760     2.3560 hn         1 1MT       0.177000
     59 H25         -4.0600     0.8890    -3.0530 h1         1 1MT       0.029700
     60 H26         -5.2350    -0.0560    -2.1060 h1         1 1MT       0.029700
     61 H27         -5.8350     2.1490    -3.9780 hn         1 1MT       0.398000
     62 H28         -6.0750     0.5790    -4.2540 hn         1 1MT       0.398000
     63 H30         -0.6360     1.9450     2.2770 hn         1 1MT       0.430000
@<TRIPOS>BOND
     1     1     2 1   
     2     2     3 ar  
     3     2     4 ar  
     4     3     7 ar  
     5     3    31 1   
     6     4     5 ar  
     7     4    35 1   
     8     5     6 ar  
     9     5    36 1   
    10     6     7 ar  
    11     6    37 1   
    12     7     8 1   
    13     8     9 1   
    14     8    20 1   
    15     8    38 1   
    16     9    16 1   
    17     9    34 1   
    18     9    39 1   
    19    10    11 1   
    20    10    20 1   
    21    10    34 1   
    22    10    40 1   
    23    11    12 1   
    24    11    41 1   
    25    11    42 1   
    26    12    13 1   
    27    12    14 1   
    28    12    15 1   
    29    13    43 1   
    30    13    44 1   
    31    13    45 1   
    32    14    46 1   
    33    14    47 1   
    34    14    48 1   
    35    15    49 1   
    36    15    50 1   
    37    15    51 1   
    38    16    17 2   
    39    16    18 1   
    40    18    19 1   
    41    18    52 1   
    42    19    32 1   
    43    19    53 1   
    44    19    54 1   
    45    20    21 1   
    46    20    29 1   
    47    21    22 ar  
    48    21    27 ar  
    49    22    23 ar  
    50    22    55 1   
    51    23    24 ar  
    52    23    56 1   
    53    24    25 1   
    54    24    26 ar  
    55    26    27 ar  
    56    26    57 1   
    57    27    28 1   
    58    28    29 1   
    59    28    58 1   
    60    29    30 2   
    61    32    33 1   
    62    32    59 1   
    63    32    60 1   
    64    33    61 1   
    65    33    62 1   
    66    34    63 1   
@<TRIPOS>SUBSTRUCTURE
     1 1MT         1 TEMP              0 ****  ****    0 ROOT
