@<TRIPOS>MOLECULE
1MT
   63    66     1     0     0
SMALL
abcg2


@<TRIPOS>ATOM
      1 CL1         -1.2720    -4.6050    -1.3000 cl         1 1MT      -0.166000
      2 C1          -1.5510    -3.3600    -0.1420 ca         1 1MT       0.065000
      3 C2          -1.1110    -2.0750    -0.4150 ca         1 1MT       0.188000
      4 C3          -2.2080    -3.6270     1.0460 ca         1 1MT      -0.074000
      5 C4          -2.4140    -2.5920     1.9440 ca         1 1MT      -0.120000
      6 C5          -1.9670    -1.3110     1.6590 ca         1 1MT      -0.080000
      7 C6          -1.2990    -1.0200     0.4700 ca         1 1MT      -0.112300
      8 C7          -0.7750     0.3450     0.1190 c5         1 1MT      -0.013400
      9 C8          -1.6060     1.5680     0.6190 c5         1 1MT       0.093500
     10 C9           0.6370     2.2170     0.4610 c5         1 1MT       0.193500
     11 C10          1.8180     2.9300     1.0970 c3         1 1MT      -0.069400
     12 C11          1.9860     4.4300     0.7770 c3         1 1MT      -0.035000
     13 C12          3.3820     4.8420     1.2540 c3         1 1MT      -0.088433
     14 C13          1.8760     4.6840    -0.7270 c3         1 1MT      -0.088433
     15 C14          0.9520     5.2810     1.5170 c3         1 1MT      -0.088433
     16 C15         -2.5340     1.9790    -0.5170 c          1 1MT       0.604100
     17 O1          -2.1970     2.7830    -1.3720 o          1 1MT      -0.579100
     18 N1          -3.7020     1.3210    -0.5380 ns         1 1MT      -0.513900
     19 C17         -4.6810     1.4620    -1.5950 c3         1 1MT       0.103000
     20 C18          0.6560     0.6650     0.6020 c5         1 1MT      -0.126700
     21 C19          1.7590    -0.0260    -0.1310 ca         1 1MT      -0.133300
     22 C20          2.1020    -0.0370    -1.4650 ca         1 1MT      -0.036000
     23 C21          3.2200    -0.7590    -1.8800 ca         1 1MT      -0.132000
     24 C22          3.9630    -1.4560    -0.9410 ca         1 1MT       0.156000
     25 CL2          5.3490    -2.3560    -1.4640 cl         1 1MT      -0.196000
     26 C23          3.6430    -1.4630     0.4130 ca         1 1MT      -0.143000
     27 C24          2.5320    -0.7330     0.7870 ca         1 1MT      -0.019000
     28 N2           2.0040    -0.5630     2.0560 ns         1 1MT      -0.140000
     29 C25          0.9020     0.2360     2.0490 c          1 1MT       0.576000
     30 O2           0.2510     0.5480     3.0240 o          1 1MT      -0.540000
     31 F1          -0.4910    -1.8580    -1.5780 f          1 1MT      -0.158000
     32 C16         -5.6510     0.2910    -1.5730 c3         1 1MT       0.132800
     33 N3          -6.6160     0.4350    -2.6490 n8         1 1MT      -0.995200
     34 N4          -0.6620     2.6140     0.9580 n7         1 1MT      -0.816400
     35 H1          -2.5530    -4.6280     1.2610 ha         1 1MT       0.134000
     36 H2          -2.9300    -2.7870     2.8740 ha         1 1MT       0.126000
     37 H3          -2.1440    -0.5280     2.3840 ha         1 1MT       0.132000
     38 H4          -0.7200     0.4130    -0.9710 hc         1 1MT       0.088700
     39 H5          -2.1950     1.3170     1.5010 h1         1 1MT       0.064700
     40 H6           0.6620     2.3990    -0.6200 h1         1 1MT       0.086700
     41 H7           1.7880     2.8060     2.1860 hc         1 1MT       0.046700
     42 H8           2.7220     2.4150     0.7540 hc         1 1MT       0.046700
     43 H9           4.1640     4.2970     0.7210 hc         1 1MT       0.036256
     44 H10          3.5490     5.9090     1.0920 hc         1 1MT       0.036256
     45 H11          3.5090     4.6460     2.3210 hc         1 1MT       0.036256
     46 H12          0.8650     4.5050    -1.0960 hc         1 1MT       0.036256
     47 H13          2.1290     5.7200    -0.9600 hc         1 1MT       0.036256
     48 H14          2.5590     4.0420    -1.2900 hc         1 1MT       0.036256
     49 H15          1.0170     5.1250     2.5970 hc         1 1MT       0.036256
     50 H16          1.1230     6.3440     1.3280 hc         1 1MT       0.036256
     51 H17         -0.0620     5.0420     1.2030 hc         1 1MT       0.036256
     52 H18         -3.9390     0.7350     0.2470 hn         1 1MT       0.309500
     53 H19         -5.2370     2.3980    -1.4950 h1         1 1MT       0.060700
     54 H20         -4.1630     1.4950    -2.5560 h1         1 1MT       0.060700
     55 H21          1.5190     0.5050    -2.1990 ha         1 1MT       0.131000
     56 H22          3.5010    -0.7770    -2.9240 ha         1 1MT       0.136000
     57 H23          4.2370    -2.0120     1.1310 ha         1 1MT       0.138000
     58 H24          2.3840    -0.9750     2.8960 hn         1 1MT       0.177000
     59 H25         -5.0780    -0.6460    -1.6060 h1         1 1MT       0.029700
     60 H26         -6.1940     0.2930    -0.6250 h1         1 1MT       0.029700
     61 H27         -6.1680     0.2390    -3.5360 hn         1 1MT       0.398000
     62 H28         -7.3410    -0.2630    -2.5470 hn         1 1MT       0.398000
     63 H30         -0.6240     2.7080     1.9640 hn         1 1MT       0.430000
@<TRIPOS>BOND
     1     1     2 1   
     2     2     3 ar  
     3     2     4 ar  
     4     3     7 ar  
     5     3    31 1   
     6     4     5 ar  
     7     4    35 1   
     8     5     6 ar  
     9     5    36 1   
    10     6     7 ar  
    11     6    37 1   
    12     7     8 1   
    13     8     9 1   
    14     8    20 1   
    15     8    38 1   
    16     9    16 1   
    17     9    34 1   
    18     9    39 1   
    19    10    11 1   
    20    10    20 1   
    21    10    34 1   
    22    10    40 1   
    23    11    12 1   
    24    11    41 1   
    25    11    42 1   
    26    12    13 1   
    27    12    14 1   
    28    12    15 1   
    29    13    43 1   
    30    13    44 1   
    31    13    45 1   
    32    14    46 1   
    33    14    47 1   
    34    14    48 1   
    35    15    49 1   
    36    15    50 1   
    37    15    51 1   
    38    16    17 2   
    39    16    18 1   
    40    18    19 1   
    41    18    52 1   
    42    19    32 1   
    43    19    53 1   
    44    19    54 1   
    45    20    21 1   
    46    20    29 1   
    47    21    22 ar  
    48    21    27 ar  
    49    22    23 ar  
    50    22    55 1   
    51    23    24 ar  
    52    23    56 1   
    53    24    25 1   
    54    24    26 ar  
    55    26    27 ar  
    56    26    57 1   
    57    27    28 1   
    58    28    29 1   
    59    28    58 1   
    60    29    30 2   
    61    32    33 1   
    62    32    59 1   
    63    32    60 1   
    64    33    61 1   
    65    33    62 1   
    66    34    63 1   
@<TRIPOS>SUBSTRUCTURE
     1 1MT         1 TEMP              0 ****  ****    0 ROOT
