@<TRIPOS>MOLECULE
1MU
   34    35     1     0     0
SMALL
bcc


@<TRIPOS>ATOM
      1 CAI         -3.4120     1.5450     0.0310 ca         1 1MU      -0.156000
      2 CAK         -4.6440     0.9950     0.3510 ca         1 1MU      -0.111000
      3 CAT         -5.0230    -0.2530    -0.1380 ca         1 1MU      -0.140600
      4 CAQ         -6.3810    -0.8490     0.2070 c          1 1MU       0.925200
      5 OAE         -6.6410    -1.9660    -0.2790 o          1 1MU      -0.838300
      6 OAA         -7.1170    -0.1680     0.9480 o          1 1MU      -0.838300
      7 CAL         -4.1270    -0.9340    -0.9560 ca         1 1MU      -0.111000
      8 CAJ         -2.8920    -0.3870    -1.2760 ca         1 1MU      -0.156000
      9 CAS         -2.5160     0.8620    -0.7900 ca         1 1MU      -0.109300
     10 CAN         -1.1690     1.4460    -1.1090 c3         1 1MU      -0.025100
     11 CAM         -0.1760     1.1910     0.0220 c3         1 1MU       0.195800
     12 NAO          1.1140     1.7770    -0.3440 n7         1 1MU      -0.800100
     13 SAW          2.3450     1.6410     0.7340 sy         1 1MU       1.314200
     14 OAC          3.4830     2.3520     0.1770 o          1 1MU      -0.647800
     15 OAD          1.8440     2.0370     2.0430 o          1 1MU      -0.647800
     16 CAU          2.7520    -0.0760     0.8470 cc         1 1MU      -0.343500
     17 CAH          2.7950    -0.7350     2.1040 cc         1 1MU      -0.075000
     18 CAG          3.1800    -2.0350     1.9760 cd         1 1MU      -0.199100
     19 SAP          3.4880    -2.4490     0.3470 ss         1 1MU      -0.042800
     20 CAV          3.0970    -0.8780    -0.2120 cd         1 1MU       0.007300
     21 CAR          3.1730    -0.6550    -1.7050 c          1 1MU       0.947200
     22 OAF          3.6800    -1.5890    -2.3400 o          1 1MU      -0.800800
     23 OAB          2.7170     0.4170    -2.1530 o          1 1MU      -0.800800
     24 H1          -3.1440     2.5210     0.4200 ha         1 1MU       0.108000
     25 H2          -5.3250     1.5430     0.9880 ha         1 1MU       0.137000
     26 H4          -4.3990    -1.9050    -1.3510 ha         1 1MU       0.137000
     27 H5          -2.2130    -0.9370    -1.9180 ha         1 1MU       0.108000
     28 H6          -0.7840     1.0090    -2.0340 hc         1 1MU       0.047200
     29 H7          -1.2490     2.5230    -1.2730 hc         1 1MU       0.047200
     30 H8          -0.5350     1.6610     0.9380 h1         1 1MU       0.049700
     31 H9          -0.1020     0.1130     0.2080 h1         1 1MU       0.049700
     32 H10          1.4780     1.4080    -1.2340 hn         1 1MU       0.473800
     33 H11          2.5540    -0.2690     3.0470 ha         1 1MU       0.152000
     34 H12          3.2960    -2.7620     2.7640 h4         1 1MU       0.141000
@<TRIPOS>BOND
     1     1     2 ar  
     2     1     9 ar  
     3     1    24 1   
     4     2     3 ar  
     5     2    25 1   
     6     3     4 1   
     7     3     7 ar  
     8     4     5 1   
     9     4     6 1   
    10     7     8 ar  
    11     7    26 1   
    12     8     9 ar  
    13     8    27 1   
    14     9    10 1   
    15    10    11 1   
    16    10    28 1   
    17    10    29 1   
    18    11    12 1   
    19    11    30 1   
    20    11    31 1   
    21    12    13 1   
    22    12    32 1   
    23    13    14 2   
    24    13    15 2   
    25    13    16 1   
    26    16    17 1   
    27    16    20 2   
    28    17    18 2   
    29    17    33 1   
    30    18    19 1   
    31    18    34 1   
    32    19    20 1   
    33    20    21 1   
    34    21    22 1   
    35    21    23 1   
@<TRIPOS>SUBSTRUCTURE
     1 1MU         1 TEMP              0 ****  ****    0 ROOT
