@<TRIPOS>MOLECULE
1MU
   34    35     1     0     0
SMALL
No Charge or Current Charge


@<TRIPOS>ATOM
      1 CAI         -3.4630     1.6370    -0.1150 ca         1 1MU      -0.138000
      2 CAK         -4.6790     0.9910     0.1640 ca         1 1MU      -0.093000
      3 CAT         -4.8590    -0.3790    -0.1410 ca         1 1MU      -0.140600
      4 CAQ         -6.1760    -1.0800     0.1600 c          1 1MU       0.714600
      5 OAE         -6.2880    -2.2650    -0.1220 o          1 1MU      -0.733000
      6 OAA         -7.0800    -0.4360     0.6730 o          1 1MU      -0.733000
      7 CAL         -3.7810    -1.0800    -0.7320 ca         1 1MU      -0.093000
      8 CAJ         -2.5660    -0.4310    -1.0100 ca         1 1MU      -0.138000
      9 CAS         -2.3990     0.9310    -0.7040 ca         1 1MU      -0.109300
     10 CAN         -1.0770     1.6290    -1.0020 c3         1 1MU      -0.025100
     11 CAM         -0.0200     1.3510     0.0840 c3         1 1MU       0.195800
     12 NAO          1.2430     2.0270    -0.2490 n7         1 1MU      -0.855300
     13 SAW          2.5450     1.7240     0.7290 sy         1 1MU       1.172600
     14 OAC          3.6980     2.2360    -0.0160 o          1 1MU      -0.577000
     15 OAD          2.2030     2.2490     2.0540 o          1 1MU      -0.577000
     16 CAU          2.6410    -0.0810     0.7930 cc         1 1MU      -0.343500
     17 CAH          2.6270    -0.8000     2.0240 cc         1 1MU      -0.057000
     18 CAG          2.7250    -2.1580     1.9140 cd         1 1MU      -0.326000
     19 SAP          2.8910    -2.6480     0.2290 ss         1 1MU       0.247000
     20 CAV          2.7400    -0.9590    -0.2970 cd         1 1MU      -0.137600
     21 CAR          2.6920    -0.6520    -1.7660 c          1 1MU       0.736600
     22 OAF          2.8350    -1.5790    -2.5490 o          1 1MU      -0.695500
     23 OAB          2.4630     0.4860    -2.1460 o          1 1MU      -0.695500
     24 H1          -3.3490     2.6900     0.1310 ha         1 1MU       0.090000
     25 H2          -5.4850     1.5620     0.6200 ha         1 1MU       0.119000
     26 H4          -3.8820    -2.1350    -0.9800 ha         1 1MU       0.119000
     27 H5          -1.7510    -0.9910    -1.4630 ha         1 1MU       0.090000
     28 H6          -0.6920     1.2940    -1.9730 hc         1 1MU       0.047200
     29 H7          -1.2280     2.7120    -1.0870 hc         1 1MU       0.047200
     30 H8          -0.4040     1.7090     1.0500 h1         1 1MU       0.049700
     31 H9           0.1180     0.2640     0.1640 h1         1 1MU       0.049700
     32 H10          1.6280     1.5640    -1.0850 hn         1 1MU       0.529000
     33 H11          2.5430    -0.2910     2.9820 ha         1 1MU       0.134000
     34 H12          2.7340    -2.8980     2.7040 h4         1 1MU       0.123000
@<TRIPOS>BOND
     1     1     2 ar  
     2     1     9 ar  
     3     1    24 1   
     4     2     3 ar  
     5     2    25 1   
     6     3     4 1   
     7     3     7 ar  
     8     4     5 1   
     9     4     6 1   
    10     7     8 ar  
    11     7    26 1   
    12     8     9 ar  
    13     8    27 1   
    14     9    10 1   
    15    10    11 1   
    16    10    28 1   
    17    10    29 1   
    18    11    12 1   
    19    11    30 1   
    20    11    31 1   
    21    12    13 1   
    22    12    32 1   
    23    13    14 2   
    24    13    15 2   
    25    13    16 1   
    26    16    17 1   
    27    16    20 2   
    28    17    18 2   
    29    17    33 1   
    30    18    19 1   
    31    18    34 1   
    32    19    20 1   
    33    20    21 1   
    34    21    22 1   
    35    21    23 1   
@<TRIPOS>SUBSTRUCTURE
     1 1MU         1 TEMP              0 ****  ****    0 ROOT
