@<TRIPOS>MOLECULE
1MW
   37    38     1     0     0
SMALL
No Charge or Current Charge


@<TRIPOS>ATOM
      1 CAI         -3.5070     1.1020    -0.6700 ca         1 1MW      -0.137500
      2 CAK         -4.8170     1.4840    -0.3310 ca         1 1MW      -0.090500
      3 CAU         -5.8200     0.5110    -0.1060 ca         1 1MW      -0.138600
      4 CAR         -7.2380     0.9230     0.2600 c          1 1MW       0.713600
      5 OAE         -8.0730     0.0480     0.4480 o          1 1MW      -0.732000
      6 OAA         -7.4980     2.1140     0.3550 o          1 1MW      -0.732000
      7 CAL         -5.4690    -0.8540    -0.2290 ca         1 1MW      -0.090500
      8 CAJ         -4.1580    -1.2320    -0.5680 ca         1 1MW      -0.137500
      9 CAT         -3.1690    -0.2570    -0.7920 ca         1 1MW      -0.108300
     10 CAO         -1.7490    -0.6690    -1.1560 c3         1 1MW      -0.021100
     11 CAM         -0.8610    -0.8570     0.0920 c3         1 1MW      -0.081400
     12 CAN          0.5800    -1.2760    -0.2560 c3         1 1MW       0.196800
     13 NAP          1.3610    -1.4380     0.9750 n7         1 1MW      -0.850300
     14 SAX          2.9780    -1.7630     0.8110 sy         1 1MW       1.171600
     15 OAC          3.5400    -1.5360     2.1440 o          1 1MW      -0.576000
     16 OAD          3.0770    -3.0710     0.1570 o          1 1MW      -0.576000
     17 CAV          3.5790    -0.4730    -0.3070 cc         1 1MW      -0.345500
     18 CAH          4.2620    -0.7760    -1.5200 cc         1 1MW      -0.060000
     19 CAG          4.6740     0.3030    -2.2490 cd         1 1MW      -0.331000
     20 SAQ          4.2700     1.8120    -1.4330 ss         1 1MW       0.251000
     21 CAW          3.4640     0.9140    -0.1320 cd         1 1MW      -0.135600
     22 CAS          2.7410     1.6740     0.9430 c          1 1MW       0.734600
     23 OAF          2.8020     2.8940     0.9200 o          1 1MW      -0.690000
     24 OAB          2.0740     1.0750     1.7730 o          1 1MW      -0.690000
     25 H1          -2.7520     1.8670    -0.8360 ha         1 1MW       0.086500
     26 H2          -5.0500     2.5430    -0.2440 ha         1 1MW       0.120500
     27 H4          -6.2130    -1.6300    -0.0620 ha         1 1MW       0.120500
     28 H5          -3.9110    -2.2880    -0.6550 ha         1 1MW       0.086500
     29 H6          -1.7640    -1.6040    -1.7310 hc         1 1MW       0.028200
     30 H7          -1.2940     0.0850    -1.8100 hc         1 1MW       0.028200
     31 H8          -0.8390     0.0800     0.6610 hc         1 1MW       0.060200
     32 H9          -1.3110    -1.6180     0.7410 hc         1 1MW       0.060200
     33 H10          0.5510    -2.2200    -0.8180 h1         1 1MW       0.037700
     34 H11          1.0190    -0.5100    -0.9090 h1         1 1MW       0.037700
     35 H12          1.4830    -0.5020     1.3880 hn         1 1MW       0.535000
     36 H13          4.4380    -1.8020    -1.8360 ha         1 1MW       0.132000
     37 H14          5.2040     0.3150    -3.1930 h4         1 1MW       0.122000
@<TRIPOS>BOND
     1     1     2 ar  
     2     1     9 ar  
     3     1    25 1   
     4     2     3 ar  
     5     2    26 1   
     6     3     4 1   
     7     3     7 ar  
     8     4     5 1   
     9     4     6 1   
    10     7     8 ar  
    11     7    27 1   
    12     8     9 ar  
    13     8    28 1   
    14     9    10 1   
    15    10    11 1   
    16    10    29 1   
    17    10    30 1   
    18    11    12 1   
    19    11    31 1   
    20    11    32 1   
    21    12    13 1   
    22    12    33 1   
    23    12    34 1   
    24    13    14 1   
    25    13    35 1   
    26    14    15 2   
    27    14    16 2   
    28    14    17 1   
    29    17    18 1   
    30    17    21 2   
    31    18    19 2   
    32    18    36 1   
    33    19    20 1   
    34    19    37 1   
    35    20    21 1   
    36    21    22 1   
    37    22    23 1   
    38    22    24 1   
@<TRIPOS>SUBSTRUCTURE
     1 1MW         1 TEMP              0 ****  ****    0 ROOT
