@<TRIPOS>MOLECULE
1MW
   37    38     1     0     0
SMALL
bcc


@<TRIPOS>ATOM
      1 CAI         -3.5620     0.9540    -0.9540 ca         1 1MW      -0.155500
      2 CAK         -4.8160     1.4230    -0.5890 ca         1 1MW      -0.108500
      3 CAU         -5.7840     0.5620    -0.0800 ca         1 1MW      -0.138600
      4 CAR         -7.1640     1.0750     0.3070 c          1 1MW       0.924200
      5 OAE         -7.9740     0.2320     0.7390 o          1 1MW      -0.837300
      6 OAA         -7.3700     2.2960     0.1550 o          1 1MW      -0.837300
      7 CAL         -5.4550    -0.7840     0.0590 ca         1 1MW      -0.108500
      8 CAJ         -4.2010    -1.2550    -0.3050 ca         1 1MW      -0.155500
      9 CAT         -3.2350    -0.3940    -0.8220 ca         1 1MW      -0.108300
     10 CAO         -1.8670    -0.8950    -1.1890 c3         1 1MW      -0.021100
     11 CAM         -0.9170    -0.8980     0.0080 c3         1 1MW      -0.081400
     12 CAN          0.4710    -1.3770    -0.3850 c3         1 1MW       0.196800
     13 NAP          1.3230    -1.4050     0.8050 n7         1 1MW      -0.795100
     14 SAX          2.9150    -1.7320     0.5850 sy         1 1MW       1.313200
     15 OAC          3.5330    -1.7820     1.8990 o          1 1MW      -0.646800
     16 OAD          3.0190    -2.8970    -0.2830 o          1 1MW      -0.646800
     17 CAV          3.6080    -0.3730    -0.3150 cc         1 1MW      -0.345500
     18 CAH          4.3530    -0.5960    -1.5040 cc         1 1MW      -0.078000
     19 CAG          4.8360     0.5680    -2.0180 cd         1 1MW      -0.204100
     20 SAQ          4.3890     1.9160    -1.0700 ss         1 1MW      -0.038800
     21 CAW          3.5300     0.9470     0.0500 cd         1 1MW       0.009300
     22 CAS          2.8460     1.6720     1.1870 c          1 1MW       0.945200
     23 OAF          3.0980     2.8820     1.2530 o          1 1MW      -0.795300
     24 OAB          2.0990     1.0030     1.9300 o          1 1MW      -0.795300
     25 H1          -2.8260     1.6430    -1.3530 ha         1 1MW       0.104500
     26 H2          -5.0480     2.4740    -0.7060 ha         1 1MW       0.138500
     27 H4          -6.1920    -1.4730     0.4520 ha         1 1MW       0.138500
     28 H5          -3.9700    -2.3090    -0.1930 ha         1 1MW       0.104500
     29 H6          -1.9380    -1.9080    -1.5940 hc         1 1MW       0.028200
     30 H7          -1.4480    -0.2690    -1.9810 hc         1 1MW       0.028200
     31 H8          -0.8540     0.1120     0.4240 hc         1 1MW       0.060200
     32 H9          -1.3170    -1.5410     0.7970 hc         1 1MW       0.060200
     33 H10          0.4120    -2.3820    -0.8020 h1         1 1MW       0.037700
     34 H11          0.8730    -0.7180    -1.1650 h1         1 1MW       0.037700
     35 H12          1.2880    -0.5270     1.3420 hn         1 1MW       0.479800
     36 H13          4.5200    -1.5660    -1.9480 ha         1 1MW       0.150000
     37 H14          5.4320     0.6900    -2.9100 h4         1 1MW       0.140000
@<TRIPOS>BOND
     1     1     2 ar  
     2     1     9 ar  
     3     1    25 1   
     4     2     3 ar  
     5     2    26 1   
     6     3     4 1   
     7     3     7 ar  
     8     4     5 1   
     9     4     6 1   
    10     7     8 ar  
    11     7    27 1   
    12     8     9 ar  
    13     8    28 1   
    14     9    10 1   
    15    10    11 1   
    16    10    29 1   
    17    10    30 1   
    18    11    12 1   
    19    11    31 1   
    20    11    32 1   
    21    12    13 1   
    22    12    33 1   
    23    12    34 1   
    24    13    14 1   
    25    13    35 1   
    26    14    15 2   
    27    14    16 2   
    28    14    17 1   
    29    17    18 1   
    30    17    21 2   
    31    18    19 2   
    32    18    36 1   
    33    19    20 1   
    34    19    37 1   
    35    20    21 1   
    36    21    22 1   
    37    22    23 1   
    38    22    24 1   
@<TRIPOS>SUBSTRUCTURE
     1 1MW         1 TEMP              0 ****  ****    0 ROOT
