@<TRIPOS>MOLECULE
1MX
   43    45     1     0     0
SMALL
No Charge or Current Charge


@<TRIPOS>ATOM
      1 C            5.9460    -2.2410     0.2920 cc         1 1MX       0.758800
      2 N            6.2780    -3.4830     0.5480 nv         1 1MX      -1.054200
      3 O            7.7220     0.6190    -0.6200 o          1 1MX      -0.481000
      4 C1           6.7750    -0.0980    -0.3220 c          1 1MX       0.490500
      5 N1           6.9490    -1.4090    -0.0300 ns         1 1MX      -0.461400
      6 O1           0.9360     2.6320    -0.2210 o          1 1MX      -0.595100
      7 C2           5.3440     0.3580    -0.2440 ca         1 1MX       0.160500
      8 N2           4.6730    -1.9710     0.3870 nd         1 1MX      -0.784700
      9 O2          -3.7670    -1.0610    -0.2370 o          1 1MX      -0.619100
     10 C3           4.3600    -0.6180     0.1090 ca         1 1MX       0.331000
     11 N3           3.0640    -0.2350     0.1820 nb         1 1MX      -0.136000
     12 C4           2.7390     1.0560    -0.0790 ca         1 1MX       0.036500
     13 N4           5.0320     1.6610    -0.5110 nb         1 1MX      -0.562000
     14 C5           3.7250     1.9990    -0.4250 ca         1 1MX       0.293900
     15 N5           0.3830     0.5030     0.3500 ns         1 1MX      -0.484900
     16 C6           1.2950     1.4840     0.0030 c          1 1MX       0.506600
     17 N6          -3.2120     1.0760    -0.7850 ns         1 1MX      -0.526900
     18 C7          -1.0680     0.7060     0.4670 c3         1 1MX       0.077000
     19 N7          -5.4140     0.5650    -0.3920 ns         1 1MX      -0.163000
     20 C8          -1.7620     0.8760    -0.9040 c3         1 1MX       0.101000
     21 C9          -4.1130     0.0920    -0.4500 c          1 1MX       0.663100
     22 C10         -6.6510    -0.0680    -0.0910 ca         1 1MX      -0.002000
     23 C11         -6.7680    -1.4350     0.2500 ca         1 1MX      -0.154500
     24 C12         -8.0270    -1.9910     0.5360 ca         1 1MX      -0.081500
     25 C13         -9.1800    -1.1920     0.4850 ca         1 1MX      -0.140000
     26 C14         -9.0740     0.1660     0.1470 ca         1 1MX      -0.081500
     27 C15         -7.8150     0.7220    -0.1390 ca         1 1MX      -0.154500
     28 HN           7.1690    -3.6190     1.0090 hn         1 1MX       0.515500
     29 HNA          5.5140    -4.0140     0.9460 hn         1 1MX       0.515500
     30 HN1          7.8860    -1.7720    -0.0940 hn         1 1MX       0.327500
     31 H5           3.4730     3.0380    -0.6360 h4         1 1MX       0.062100
     32 HN5          0.7590    -0.4240     0.5250 hn         1 1MX       0.347500
     33 HN6         -3.5840     2.0040    -0.9490 hn         1 1MX       0.311500
     34 H7          -1.4970    -0.1590     0.9890 h1         1 1MX       0.061700
     35 H7A         -1.2540     1.5960     1.0820 h1         1 1MX       0.061700
     36 HN7         -5.5060     1.5500    -0.6030 hn         1 1MX       0.143000
     37 H8          -1.5740    -0.0130    -1.5200 h1         1 1MX       0.061700
     38 H8A         -1.3340     1.7420    -1.4250 h1         1 1MX       0.061700
     39 H11         -5.8980    -2.0820     0.3010 ha         1 1MX       0.127000
     40 H12         -8.1080    -3.0440     0.7980 ha         1 1MX       0.112500
     41 H13        -10.1530    -1.6240     0.7060 ha         1 1MX       0.115000
     42 H14         -9.9660     0.7880     0.1070 ha         1 1MX       0.112500
     43 H15         -7.7470     1.7770    -0.3990 ha         1 1MX       0.127000
@<TRIPOS>BOND
     1     1     2 1   
     2     1     5 1   
     3     1     8 2   
     4     2    28 1   
     5     2    29 1   
     6     3     4 2   
     7     4     5 1   
     8     4     7 1   
     9     5    30 1   
    10     6    16 2   
    11     7    10 ar  
    12     7    13 ar  
    13     8    10 1   
    14     9    21 2   
    15    10    11 ar  
    16    11    12 ar  
    17    12    14 ar  
    18    12    16 1   
    19    13    14 ar  
    20    14    31 1   
    21    15    16 1   
    22    15    18 1   
    23    15    32 1   
    24    17    20 1   
    25    17    21 1   
    26    17    33 1   
    27    18    20 1   
    28    18    34 1   
    29    18    35 1   
    30    19    21 1   
    31    19    22 1   
    32    19    36 1   
    33    20    37 1   
    34    20    38 1   
    35    22    23 ar  
    36    22    27 ar  
    37    23    24 ar  
    38    23    39 1   
    39    24    25 ar  
    40    24    40 1   
    41    25    26 ar  
    42    25    41 1   
    43    26    27 ar  
    44    26    42 1   
    45    27    43 1   
@<TRIPOS>SUBSTRUCTURE
     1 1MX         1 TEMP              0 ****  ****    0 ROOT
