@<TRIPOS>MOLECULE
1MX
   43    45     1     0     0
SMALL
abcg2


@<TRIPOS>ATOM
      1 C            5.7860    -1.9890    -0.5390 cc         1 1MX       0.758800
      2 N            6.1470    -3.1510    -1.0720 nv         1 1MX      -1.054200
      3 O            7.5180     0.6480     1.0410 o          1 1MX      -0.481000
      4 C1           6.5970     0.0090     0.5840 c          1 1MX       0.490500
      5 N1           6.7870    -1.2170    -0.0150 ns         1 1MX      -0.461400
      6 O1           0.8610     2.5930     1.0390 o          1 1MX      -0.595100
      7 C2           5.1890     0.4190     0.5920 ca         1 1MX       0.160500
      8 N2           4.5290    -1.6310    -0.5350 nd         1 1MX      -0.784700
      9 O2          -3.7930    -0.9190     0.5860 o          1 1MX      -0.619100
     10 C3           4.2300    -0.4390     0.0190 ca         1 1MX       0.331000
     11 N3           2.9450    -0.0620     0.0160 nb         1 1MX      -0.136000
     12 C4           2.6400     1.0970     0.5560 ca         1 1MX       0.036500
     13 N4           4.8740     1.5840     1.1370 nb         1 1MX      -0.562000
     14 C5           3.6060     1.9350     1.1290 ca         1 1MX       0.293900
     15 N5           0.3640     0.6660    -0.0370 ns         1 1MX      -0.484900
     16 C6           1.1980     1.5270     0.5460 c          1 1MX       0.506600
     17 N6          -3.0820     0.1070    -1.3030 ns         1 1MX      -0.526900
     18 C7          -1.0540     0.9150    -0.1600 c3         1 1MX       0.077000
     19 N7          -5.3050     0.1010    -0.8020 ns         1 1MX      -0.163000
     20 C8          -1.6830    -0.1360    -1.0690 c3         1 1MX       0.101000
     21 C9          -4.0420    -0.2810    -0.4270 c          1 1MX       0.663100
     22 C10         -6.5170    -0.1450    -0.1590 ca         1 1MX      -0.002000
     23 C11         -6.6460    -0.6950     1.1190 ca         1 1MX      -0.154500
     24 C12         -7.9100    -0.8820     1.6640 ca         1 1MX      -0.081500
     25 C13         -9.0580    -0.5290     0.9710 ca         1 1MX      -0.140000
     26 C14         -8.9290     0.0220    -0.2980 ca         1 1MX      -0.081500
     27 C15         -7.6770     0.2110    -0.8570 ca         1 1MX      -0.154500
     28 HN           7.0990    -3.4740    -1.0820 hn         1 1MX       0.515500
     29 HNA          5.4380    -3.7570    -1.4480 hn         1 1MX       0.515500
     30 HN1          7.7410    -1.5540    -0.0590 hn         1 1MX       0.327500
     31 H5           3.3370     2.8850     1.5710 h4         1 1MX       0.062100
     32 HN5          0.7560    -0.1920    -0.3970 hn         1 1MX       0.347500
     33 HN6         -3.3200     0.7020    -2.0800 hn         1 1MX       0.311500
     34 H7          -1.5340     0.8930     0.8220 h1         1 1MX       0.061700
     35 H7A         -1.2190     1.9100    -0.5820 h1         1 1MX       0.061700
     36 HN7         -5.3920     0.5740    -1.6890 hn         1 1MX       0.143000
     37 H8          -1.5490    -1.1310    -0.6420 h1         1 1MX       0.061700
     38 H8A         -1.1800    -0.1330    -2.0370 h1         1 1MX       0.061700
     39 H11         -5.7760    -0.9770     1.6880 ha         1 1MX       0.127000
     40 H12         -7.9890    -1.3120     2.6550 ha         1 1MX       0.112500
     41 H13        -10.0350    -0.6810     1.4090 ha         1 1MX       0.115000
     42 H14         -9.8080     0.3050    -0.8620 ha         1 1MX       0.112500
     43 H15         -7.5940     0.6410    -1.8490 ha         1 1MX       0.127000
@<TRIPOS>BOND
     1     1     2 1   
     2     1     5 1   
     3     1     8 2   
     4     2    28 1   
     5     2    29 1   
     6     3     4 2   
     7     4     5 1   
     8     4     7 1   
     9     5    30 1   
    10     6    16 2   
    11     7    10 ar  
    12     7    13 ar  
    13     8    10 1   
    14     9    21 2   
    15    10    11 ar  
    16    11    12 ar  
    17    12    14 ar  
    18    12    16 1   
    19    13    14 ar  
    20    14    31 1   
    21    15    16 1   
    22    15    18 1   
    23    15    32 1   
    24    17    20 1   
    25    17    21 1   
    26    17    33 1   
    27    18    20 1   
    28    18    34 1   
    29    18    35 1   
    30    19    21 1   
    31    19    22 1   
    32    19    36 1   
    33    20    37 1   
    34    20    38 1   
    35    22    23 ar  
    36    22    27 ar  
    37    23    24 ar  
    38    23    39 1   
    39    24    25 ar  
    40    24    40 1   
    41    25    26 ar  
    42    25    41 1   
    43    26    27 ar  
    44    26    42 1   
    45    27    43 1   
@<TRIPOS>SUBSTRUCTURE
     1 1MX         1 TEMP              0 ****  ****    0 ROOT
