@<TRIPOS>MOLECULE
1MY
   52    54     1     0     0
SMALL
No Charge or Current Charge


@<TRIPOS>ATOM
      1 C20          0.2960    -2.6840    -0.9110 ca         1 1MY      -0.103000
      2 C19         -0.4160    -3.8920    -0.8330 ca         1 1MY       0.113000
      3 Cl2         -0.3700    -5.0230    -2.1790 cl         1 1MY      -0.231000
      4 C18         -1.1670    -4.1980     0.3120 ca         1 1MY      -0.110000
      5 C17         -1.2070    -3.2920     1.3850 ca         1 1MY      -0.111000
      6 C16         -0.4950    -2.0820     1.3110 ca         1 1MY      -0.058000
      7 C10          0.2640    -1.7690     0.1610 ca         1 1MY      -0.052300
      8 C6           1.0240    -0.4370     0.0420 c6         1 1MY       0.206600
      9 O1           1.4490     0.0070     1.3550 os         1 1MY      -0.416000
     10 C7           2.2760     1.2010     1.3460 c6         1 1MY       0.112300
     11 C21          3.7020     0.8880     0.7880 c3         1 1MY      -0.234400
     12 C22          4.3810    -0.2210     1.5940 c          1 1MY       0.727000
     13 O5           4.3330    -1.3640     1.1650 o          1 1MY      -0.729500
     14 O4           4.9340     0.0900     2.6380 o          1 1MY      -0.729500
     15 C8           1.6050     2.3610     0.5520 c          1 1MY       0.527000
     16 O2           1.6720     3.5210     0.9430 o          1 1MY      -0.577000
     17 N1           0.8670     2.0090    -0.6030 n          1 1MY      -0.412800
     18 C1           0.5950     3.0390    -1.6560 c3         1 1MY       0.099700
     19 C3           1.1380     2.6320    -3.0550 c3         1 1MY      -0.080400
     20 C4           2.6370     2.2650    -3.0630 c3         1 1MY      -0.092100
     21 C2          -0.8720     3.5700    -1.6900 c3         1 1MY       0.151600
     22 O3          -1.7430     2.7410    -2.4780 oh         1 1MY      -0.666000
     23 C5           0.1860     0.6740    -0.6670 c6         1 1MY       0.133000
     24 C9          -1.2530     0.7130    -0.1110 ca         1 1MY      -0.072300
     25 C11         -2.2890     0.0800    -0.8290 ca         1 1MY      -0.083500
     26 C12         -3.6020     0.0700    -0.3270 ca         1 1MY      -0.114000
     27 C13         -3.8890     0.6910     0.8980 ca         1 1MY       0.113000
     28 Cl1         -5.5310     0.6770     1.5270 cl         1 1MY      -0.229000
     29 C14         -2.8660     1.3190     1.6240 ca         1 1MY      -0.114000
     30 C15         -1.5510     1.3290     1.1250 ca         1 1MY      -0.083500
     31 H1           0.8680    -2.4580    -1.8070 ha         1 1MY       0.125000
     32 H2          -1.7180    -5.1340     0.3670 ha         1 1MY       0.117000
     33 H3          -1.7920    -3.5240     2.2720 ha         1 1MY       0.113000
     34 H4          -0.5440    -1.3840     2.1440 ha         1 1MY       0.147000
     35 H5           1.9160    -0.6330    -0.5680 h1         1 1MY       0.066700
     36 H6           2.3770     1.5560     2.3820 h1         1 1MY       0.119700
     37 H7           3.6220     0.6070    -0.2670 hc         1 1MY       0.037700
     38 H8           4.2640     1.8190     0.9280 hc         1 1MY       0.037700
     39 H10          1.1880     3.9230    -1.3870 h1         1 1MY       0.086700
     40 H11          0.5670     1.7840    -3.4530 hc         1 1MY       0.040200
     41 H12          0.9790     3.4660    -3.7500 hc         1 1MY       0.040200
     42 H13          3.2400     3.0830    -2.6510 hc         1 1MY       0.038033
     43 H14          2.8230     1.3620    -2.4700 hc         1 1MY       0.038033
     44 H15          2.9760     2.0720    -4.0880 hc         1 1MY       0.038033
     45 H16         -1.2460     3.6570    -0.6610 h1         1 1MY       0.027200
     46 H17         -0.8580     4.5820    -2.1150 h1         1 1MY       0.027200
     47 H18         -2.6560     3.0800    -2.3470 ho         1 1MY       0.441000
     48 H19          0.1180     0.3830    -1.7240 h1         1 1MY       0.072700
     49 H20         -2.0770    -0.4100    -1.7770 ha         1 1MY       0.127000
     50 H21         -4.3950    -0.4200    -0.8860 ha         1 1MY       0.123500
     51 H22         -3.0890     1.7950     2.5750 ha         1 1MY       0.123500
     52 H23         -0.7710     1.8090     1.7070 ha         1 1MY       0.127000
@<TRIPOS>BOND
     1     1     2 ar  
     2     1     7 ar  
     3     1    31 1   
     4     2     3 1   
     5     2     4 ar  
     6     4     5 ar  
     7     4    32 1   
     8     5     6 ar  
     9     5    33 1   
    10     6     7 ar  
    11     6    34 1   
    12     7     8 1   
    13     8     9 1   
    14     8    23 1   
    15     8    35 1   
    16     9    10 1   
    17    10    11 1   
    18    10    15 1   
    19    10    36 1   
    20    11    12 1   
    21    11    37 1   
    22    11    38 1   
    23    12    13 1   
    24    12    14 1   
    25    15    16 2   
    26    15    17 1   
    27    17    18 1   
    28    17    23 1   
    29    18    19 1   
    30    18    21 1   
    31    18    39 1   
    32    19    20 1   
    33    19    40 1   
    34    19    41 1   
    35    20    42 1   
    36    20    43 1   
    37    20    44 1   
    38    21    22 1   
    39    21    45 1   
    40    21    46 1   
    41    22    47 1   
    42    23    24 1   
    43    23    48 1   
    44    24    25 ar  
    45    24    30 ar  
    46    25    26 ar  
    47    25    49 1   
    48    26    27 ar  
    49    26    50 1   
    50    27    28 1   
    51    27    29 ar  
    52    29    30 ar  
    53    29    51 1   
    54    30    52 1   
@<TRIPOS>SUBSTRUCTURE
     1 1MY         1 TEMP              0 ****  ****    0 ROOT
