@<TRIPOS>MOLECULE
1MY
   52    54     1     0     0
SMALL
abcg2


@<TRIPOS>ATOM
      1 C20          0.2340    -2.4480    -1.1970 ca         1 1MY      -0.103000
      2 C19         -0.4480    -3.6540    -1.2090 ca         1 1MY       0.113000
      3 CL2         -0.4760    -4.5940    -2.6670 cl         1 1MY      -0.231000
      4 C18         -1.1000    -4.1260    -0.0820 ca         1 1MY      -0.110000
      5 C17         -1.0590    -3.3610     1.0750 ca         1 1MY      -0.111000
      6 C16         -0.3860    -2.1480     1.1040 ca         1 1MY      -0.058000
      7 C10          0.2630    -1.6850    -0.0350 ca         1 1MY      -0.052300
      8 C6           0.9510    -0.3500    -0.0760 c6         1 1MY       0.206600
      9 O1           1.3060     0.0400     1.2160 os         1 1MY      -0.416000
     10 C7           2.1220     1.1900     1.2440 c6         1 1MY       0.112300
     11 C21          3.5910     0.8220     1.0590 c3         1 1MY      -0.234400
     12 C22          4.0970    -0.1410     2.1500 c          1 1MY       0.727000
     13 O5           4.9020    -1.0210     1.7880 o          1 1MY      -0.729500
     14 O4           3.6920     0.0690     3.3100 o          1 1MY      -0.729500
     15 C8           1.7300     2.2740     0.2450 c          1 1MY       0.527000
     16 O2           2.3170     3.3470     0.3060 o          1 1MY      -0.577000
     17 N1           0.7900     1.9960    -0.6850 n          1 1MY      -0.412800
     18 C1           0.5570     2.9510    -1.7750 c3         1 1MY       0.099700
     19 C3           1.1510     2.4460    -3.0920 c3         1 1MY      -0.080400
     20 C4           2.6450     2.1680    -3.0210 c3         1 1MY      -0.092100
     21 C2          -0.8970     3.3800    -1.9170 c3         1 1MY       0.151600
     22 O3          -1.6580     2.3920    -2.5740 oh         1 1MY      -0.666000
     23 C5           0.0560     0.7390    -0.6890 c6         1 1MY       0.133000
     24 C9          -1.2740     0.8210     0.0220 ca         1 1MY      -0.072300
     25 C11         -2.3560     0.1050    -0.4790 ca         1 1MY      -0.083500
     26 C12         -3.5760     0.0870     0.1760 ca         1 1MY      -0.114000
     27 C13         -3.7150     0.8070     1.3520 ca         1 1MY       0.113000
     28 CL1         -5.2390     0.8000     2.1820 cl         1 1MY      -0.229000
     29 C14         -2.6590     1.5380     1.8700 ca         1 1MY      -0.114000
     30 C15         -1.4440     1.5390     1.2000 ca         1 1MY      -0.083500
     31 H1           0.7420    -2.1040    -2.0900 ha         1 1MY       0.125000
     32 H2          -1.6270    -5.0700    -0.1020 ha         1 1MY       0.117000
     33 H3          -1.5630    -3.7170     1.9630 ha         1 1MY       0.113000
     34 H4          -0.3780    -1.5640     2.0140 ha         1 1MY       0.147000
     35 H5           1.8370    -0.4380    -0.7230 h1         1 1MY       0.066700
     36 H6           2.0000     1.6190     2.2420 h1         1 1MY       0.119700
     37 H7           3.7690     0.4040     0.0630 hc         1 1MY       0.037700
     38 H8           4.1880     1.7360     1.1110 hc         1 1MY       0.037700
     39 H10          1.0950     3.8540    -1.4890 h1         1 1MY       0.086700
     40 H11          0.6250     1.5500    -3.4330 hc         1 1MY       0.040200
     41 H12          0.9600     3.2120    -3.8490 hc         1 1MY       0.040200
     42 H13          3.2020     3.0490    -2.6970 hc         1 1MY       0.038033
     43 H14          2.8780     1.3580    -2.3280 hc         1 1MY       0.038033
     44 H15          3.0280     1.8730    -3.9980 hc         1 1MY       0.038033
     45 H16         -1.3000     3.6150    -0.9260 h1         1 1MY       0.027200
     46 H17         -0.8980     4.3150    -2.4930 h1         1 1MY       0.027200
     47 H18         -2.5790     2.4970    -2.3220 ho         1 1MY       0.441000
     48 H19         -0.1270     0.4630    -1.7290 h1         1 1MY       0.072700
     49 H20         -2.2490    -0.4570    -1.3990 ha         1 1MY       0.127000
     50 H21         -4.4060    -0.4760    -0.2280 ha         1 1MY       0.123500
     51 H22         -2.7760     2.1040     2.7840 ha         1 1MY       0.123500
     52 H23         -0.6360     2.1250     1.6170 ha         1 1MY       0.127000
@<TRIPOS>BOND
     1     1     2 ar  
     2     1     7 ar  
     3     1    31 1   
     4     2     3 1   
     5     2     4 ar  
     6     4     5 ar  
     7     4    32 1   
     8     5     6 ar  
     9     5    33 1   
    10     6     7 ar  
    11     6    34 1   
    12     7     8 1   
    13     8     9 1   
    14     8    23 1   
    15     8    35 1   
    16     9    10 1   
    17    10    11 1   
    18    10    15 1   
    19    10    36 1   
    20    11    12 1   
    21    11    37 1   
    22    11    38 1   
    23    12    13 1   
    24    12    14 1   
    25    15    16 2   
    26    15    17 1   
    27    17    18 1   
    28    17    23 1   
    29    18    19 1   
    30    18    21 1   
    31    18    39 1   
    32    19    20 1   
    33    19    40 1   
    34    19    41 1   
    35    20    42 1   
    36    20    43 1   
    37    20    44 1   
    38    21    22 1   
    39    21    45 1   
    40    21    46 1   
    41    22    47 1   
    42    23    24 1   
    43    23    48 1   
    44    24    25 ar  
    45    24    30 ar  
    46    25    26 ar  
    47    25    49 1   
    48    26    27 ar  
    49    26    50 1   
    50    27    28 1   
    51    27    29 ar  
    52    29    30 ar  
    53    29    51 1   
    54    30    52 1   
@<TRIPOS>SUBSTRUCTURE
     1 1MY         1 TEMP              0 ****  ****    0 ROOT
