@<TRIPOS>MOLECULE
1MZ
   13    13     1     0     0
SMALL
No Charge or Current Charge


@<TRIPOS>ATOM
      1 N1           0.6810     0.0080    -0.0110 na         1 1MZ       0.021300
      2 C2          -0.1120    -1.1020    -0.1220 cc         1 1MZ      -0.061300
      3 N3          -1.4210    -0.6460    -0.0910 na         1 1MZ      -0.067000
      4 C4          -1.4060     0.7480     0.0410 cc         1 1MZ      -0.140000
      5 C5          -0.0840     1.1490     0.0900 cd         1 1MZ      -0.154000
      6 CM1          2.1500     0.0040     0.0010 c3         1 1MZ       0.037900
      7 H2           0.2170    -2.1330    -0.2160 h5         1 1MZ       0.234000
      8 HN3         -2.2520    -1.2300    -0.1530 hn         1 1MZ       0.415000
      9 H4          -2.3190     1.3340     0.0890 h4         1 1MZ       0.216000
     10 H5           0.3480     2.1410     0.1880 h4         1 1MZ       0.214000
     11 HM11         2.5270     0.6240    -0.8200 h1         1 1MZ       0.094367
     12 HM12         2.5110     0.4070     0.9550 h1         1 1MZ       0.094367
     13 HM13         2.5250    -1.0200    -0.1200 h1         1 1MZ       0.094367
@<TRIPOS>BOND
     1     1     2 2   
     2     1     5 1   
     3     1     6 1   
     4     2     3 1   
     5     2     7 1   
     6     3     4 1   
     7     3     8 1   
     8     4     5 2   
     9     4     9 1   
    10     5    10 1   
    11     6    11 1   
    12     6    12 1   
    13     6    13 1   
@<TRIPOS>SUBSTRUCTURE
     1 1MZ         1 TEMP              0 ****  ****    0 ROOT
