@<TRIPOS>MOLECULE
1MZ
   13    13     1     0     0
SMALL
bcc


@<TRIPOS>ATOM
      1 N1           0.6770     0.0140    -0.0090 na         1 1MZ      -0.000100
      2 C2          -0.1110    -1.0420    -0.1150 cc         1 1MZ      -0.028600
      3 N3          -1.3650    -0.6240    -0.0860 na         1 1MZ      -0.118100
      4 C4          -1.3920     0.7360     0.0410 cc         1 1MZ      -0.107300
      5 C5          -0.1010     1.1410     0.0900 cd         1 1MZ      -0.121300
      6 CM1          2.1300    -0.0100     0.0000 c3         1 1MZ       0.008600
      7 H2           0.2100    -2.0650    -0.2090 h5         1 1MZ       0.252000
      8 HN3         -2.1710    -1.2280    -0.1570 hn         1 1MZ       0.364700
      9 H4          -2.3090     1.2960     0.0850 h4         1 1MZ       0.234000
     10 H5           0.3240     2.1250     0.1850 h4         1 1MZ       0.232000
     11 HM11         2.5080     0.5950    -0.8180 h1         1 1MZ       0.094367
     12 HM12         2.4950     0.3800     0.9460 h1         1 1MZ       0.094367
     13 HM13         2.4690    -1.0330    -0.1230 h1         1 1MZ       0.094367
@<TRIPOS>BOND
     1     1     2 2   
     2     1     5 1   
     3     1     6 1   
     4     2     3 1   
     5     2     7 1   
     6     3     4 1   
     7     3     8 1   
     8     4     5 2   
     9     4     9 1   
    10     5    10 1   
    11     6    11 1   
    12     6    12 1   
    13     6    13 1   
@<TRIPOS>SUBSTRUCTURE
     1 1MZ         1 TEMP              0 ****  ****    0 ROOT
