@<TRIPOS>MOLECULE
1N0
   40    41     1     0     0
SMALL
bcc


@<TRIPOS>ATOM
      1 O20          4.6080    -2.2670    -0.1830 o          1 1N0      -0.577500
      2 C15          5.0460    -1.1550    -0.0170 c          1 1N0       0.708500
      3 C16          6.3740    -0.7730     0.5830 c5         1 1N0      -0.169400
      4 C17          6.4030     0.7490     0.5380 c5         1 1N0      -0.169400
      5 C18          5.0740     1.1470    -0.0490 c          1 1N0       0.708500
      6 O19          4.6580     2.2650    -0.2360 o          1 1N0      -0.577500
      7 N14          4.3760    -0.0000    -0.3600 n          1 1N0      -0.520900
      8 C13          3.0460     0.0060    -0.9380 c3         1 1N0       0.104500
      9 C12          1.9470     0.0090     0.1160 c3         1 1N0      -0.095400
     10 C11          0.5640     0.0100    -0.5220 c3         1 1N0      -0.071900
     11 C10         -0.5580     0.0090     0.5080 c3         1 1N0      -0.071900
     12 C9          -1.9410     0.0050    -0.1310 c3         1 1N0      -0.095400
     13 C8          -3.0410     0.0020     0.9210 c3         1 1N0       0.104500
     14 N4          -4.3700    -0.0040     0.3420 n          1 1N0      -0.520900
     15 C3          -5.0470    -1.1580     0.0120 c          1 1N0       0.708500
     16 O7          -4.6150    -2.2710     0.1900 o          1 1N0      -0.577500
     17 C2          -6.3730    -0.7740    -0.5920 c5         1 1N0      -0.169400
     18 C5          -5.0620     1.1440     0.0220 c          1 1N0       0.708500
     19 O6          -4.6410     2.2620     0.2000 o          1 1N0      -0.577500
     20 C1          -6.3930     0.7480    -0.5630 c5         1 1N0      -0.169400
     21 H1           6.4340    -1.1680     1.5980 hc         1 1N0       0.086200
     22 H2           6.5190     1.2060     1.5200 hc         1 1N0       0.086200
     23 H3           2.9650     0.8850    -1.5770 h1         1 1N0       0.064950
     24 H4           2.9570    -0.8690    -1.5810 h1         1 1N0       0.064950
     25 H5           2.0550    -0.8680     0.7600 hc         1 1N0       0.050700
     26 H6           2.0580     0.8880     0.7580 hc         1 1N0       0.050700
     27 H7           0.4610     0.8860    -1.1720 hc         1 1N0       0.041700
     28 H8           0.4610    -0.8650    -1.1720 hc         1 1N0       0.041700
     29 H9          -0.4530    -0.8660     1.1590 hc         1 1N0       0.041700
     30 H10         -0.4570     0.8860     1.1560 hc         1 1N0       0.041700
     31 H11         -2.0530     0.8820    -0.7750 hc         1 1N0       0.050700
     32 H12         -2.0480    -0.8740    -0.7730 hc         1 1N0       0.050700
     33 H13         -2.9530    -0.8740     1.5640 h1         1 1N0       0.064950
     34 H14         -2.9600     0.8810     1.5610 h1         1 1N0       0.064950
     35 H15         -6.4360    -1.1810    -1.6010 hc         1 1N0       0.086200
     36 H16         -6.5020     1.1940    -1.5520 hc         1 1N0       0.086200
     37 H17          7.1780    -1.2360     0.0100 hc         1 1N0       0.086200
     38 H18          7.2020     1.1410    -0.0940 hc         1 1N0       0.086200
     39 H19         -7.1780    -1.2270    -0.0130 hc         1 1N0       0.086200
     40 H20         -7.1910     1.1520     0.0600 hc         1 1N0       0.086200
@<TRIPOS>BOND
     1     1     2 2   
     2     2     3 1   
     3     2     7 1   
     4     3     4 1   
     5     3    21 1   
     6     3    37 1   
     7     4     5 1   
     8     4    22 1   
     9     4    38 1   
    10     5     6 2   
    11     5     7 1   
    12     7     8 1   
    13     8     9 1   
    14     8    23 1   
    15     8    24 1   
    16     9    10 1   
    17     9    25 1   
    18     9    26 1   
    19    10    11 1   
    20    10    27 1   
    21    10    28 1   
    22    11    12 1   
    23    11    29 1   
    24    11    30 1   
    25    12    13 1   
    26    12    31 1   
    27    12    32 1   
    28    13    14 1   
    29    13    33 1   
    30    13    34 1   
    31    14    15 1   
    32    14    18 1   
    33    15    16 2   
    34    15    17 1   
    35    17    20 1   
    36    17    35 1   
    37    17    39 1   
    38    18    19 2   
    39    18    20 1   
    40    20    36 1   
    41    20    40 1   
@<TRIPOS>SUBSTRUCTURE
     1 1N0         1 TEMP              0 ****  ****    0 ROOT
