@<TRIPOS>MOLECULE
1N0
   40    41     1     0     0
SMALL
No Charge or Current Charge


@<TRIPOS>ATOM
      1 O20          4.8800    -2.2860    -0.4570 o          1 1N0      -0.502000
      2 C15          5.1260    -1.1860     0.0160 c          1 1N0       0.566000
      3 C16          6.3350    -0.7130     0.8350 c5         1 1N0      -0.169400
      4 C17          6.5670     0.7240     0.2790 c5         1 1N0      -0.169400
      5 C18          5.1390     1.1820    -0.0570 c          1 1N0       0.566000
      6 O19          4.6290     2.2880     0.0380 o          1 1N0      -0.502000
      7 N14          4.4550    -0.0070    -0.2830 n          1 1N0      -0.386900
      8 C13          3.1180    -0.0130    -0.9140 c3         1 1N0       0.104500
      9 C12          1.9760    -0.0070     0.1220 c3         1 1N0      -0.095400
     10 C11          0.5750    -0.0100    -0.5270 c3         1 1N0      -0.071900
     11 C10         -0.5690    -0.0050     0.5100 c3         1 1N0      -0.071900
     12 C9          -1.9710    -0.0080    -0.1380 c3         1 1N0      -0.095400
     13 C8          -3.1130    -0.0030     0.8970 c3         1 1N0       0.104500
     14 N4          -4.4490    -0.0030     0.2670 n          1 1N0      -0.386900
     15 C3          -5.1200    -1.1850    -0.0210 c          1 1N0       0.566000
     16 O7          -4.8750    -2.2800     0.4620 o          1 1N0      -0.502000
     17 C2          -6.3300    -0.7200    -0.8440 c5         1 1N0      -0.169400
     18 C5          -5.1330     1.1830     0.0290 c          1 1N0       0.566000
     19 O6          -4.6230     2.2890    -0.0760 o          1 1N0      -0.502000
     20 C1          -6.5610     0.7220    -0.3010 c5         1 1N0      -0.169400
     21 H1           6.0160    -0.6310     1.8800 hc         1 1N0       0.086200
     22 H2           7.0780     1.4280     0.9430 hc         1 1N0       0.086200
     23 H3           3.0230     0.8690    -1.5620 h1         1 1N0       0.064950
     24 H4           3.0210    -0.8980    -1.5560 h1         1 1N0       0.064950
     25 H5           2.0770    -0.8870     0.7710 hc         1 1N0       0.050700
     26 H6           2.0770     0.8780     0.7630 hc         1 1N0       0.050700
     27 H7           0.4770     0.8690    -1.1760 hc         1 1N0       0.041700
     28 H8           0.4770    -0.8950    -1.1680 hc         1 1N0       0.041700
     29 H9          -0.4710    -0.8840     1.1600 hc         1 1N0       0.041700
     30 H10         -0.4710     0.8800     1.1510 hc         1 1N0       0.041700
     31 H11         -2.0710     0.8710    -0.7870 hc         1 1N0       0.050700
     32 H12         -2.0720    -0.8930    -0.7780 hc         1 1N0       0.050700
     33 H13         -3.0160    -0.8820     1.5490 h1         1 1N0       0.064950
     34 H14         -3.0170     0.8840     1.5370 h1         1 1N0       0.064950
     35 H15         -6.0110    -0.6480    -1.8900 hc         1 1N0       0.086200
     36 H16         -7.0720     1.4210    -0.9730 hc         1 1N0       0.086200
     37 H17          7.1800    -1.4070     0.7600 hc         1 1N0       0.086200
     38 H18          7.1190     0.6480    -0.6650 hc         1 1N0       0.086200
     39 H19         -7.1740    -1.4120    -0.7630 hc         1 1N0       0.086200
     40 H20         -7.1130     0.6560     0.6430 hc         1 1N0       0.086200
@<TRIPOS>BOND
     1     1     2 2   
     2     2     3 1   
     3     2     7 1   
     4     3     4 1   
     5     3    21 1   
     6     3    37 1   
     7     4     5 1   
     8     4    22 1   
     9     4    38 1   
    10     5     6 2   
    11     5     7 1   
    12     7     8 1   
    13     8     9 1   
    14     8    23 1   
    15     8    24 1   
    16     9    10 1   
    17     9    25 1   
    18     9    26 1   
    19    10    11 1   
    20    10    27 1   
    21    10    28 1   
    22    11    12 1   
    23    11    29 1   
    24    11    30 1   
    25    12    13 1   
    26    12    31 1   
    27    12    32 1   
    28    13    14 1   
    29    13    33 1   
    30    13    34 1   
    31    14    15 1   
    32    14    18 1   
    33    15    16 2   
    34    15    17 1   
    35    17    20 1   
    36    17    35 1   
    37    17    39 1   
    38    18    19 2   
    39    18    20 1   
    40    20    36 1   
    41    20    40 1   
@<TRIPOS>SUBSTRUCTURE
     1 1N0         1 TEMP              0 ****  ****    0 ROOT
