@<TRIPOS>MOLECULE
1N1
   59    62     1     0     0
SMALL
abcg2


@<TRIPOS>ATOM
      1 C1          -2.4390     1.5940     0.8270 cc         1 1N1       0.387900
      2 C2          -3.1210     0.5430     0.2930 cd         1 1N1      -0.329600
      3 C3          -4.5820     0.4270     0.2250 c          1 1N1       0.661700
      4 N6           7.9450    -0.9610    -0.4160 n3         1 1N1      -0.702600
      5 C7          -9.1810    -1.5400    -0.4100 ca         1 1N1      -0.099000
      6 C8          -8.4510    -2.0710     0.6410 ca         1 1N1      -0.104000
      7 C9          -7.0870    -1.8270     0.7650 ca         1 1N1      -0.075300
      8 C10         -6.3030    -2.3900     1.9120 c3         1 1N1      -0.048800
      9 C11          1.7760     0.6400     0.3370 ca         1 1N1       0.399900
     10 C12          2.9470    -0.0880     0.1840 ca         1 1N1      -0.364000
     11 C13          4.1460     0.6000     0.4110 ca         1 1N1       0.422900
     12 C14          2.9380     2.4750     0.9090 ca         1 1N1       0.210300
     13 C15          2.9220     3.9180     1.3060 c3         1 1N1      -0.135400
     14 C16          6.5630     0.6420     0.8040 c6         1 1N1       0.222300
     15 C19          5.5410    -1.3490    -0.1340 c6         1 1N1       0.222300
     16 C20          9.1200    -1.2000    -1.2320 c3         1 1N1       0.168800
     17 C21         10.4330    -1.0140    -0.5010 c3         1 1N1       0.166600
     18 N            0.5840    -0.0220     0.1010 nu         1 1N1      -0.896800
     19 C           -0.6910     0.4080     0.2780 cd         1 1N1       0.741300
     20 N1          -1.0870     1.5170     0.8240 nc         1 1N1      -0.664000
     21 S           -1.9780    -0.6260    -0.2850 ss         1 1N1      -0.120400
     22 N2          -5.0720    -0.7950    -0.1100 ns         1 1N1      -0.166000
     23 C4          -6.4550    -1.0430    -0.2040 ca         1 1N1      -0.041000
     24 C5          -7.1960    -0.5270    -1.2650 ca         1 1N1       0.133000
     25 C6          -8.5560    -0.7630    -1.3740 ca         1 1N1      -0.101000
     26 CL          -6.4040     0.3990    -2.4900 cl         1 1N1      -0.183000
     27 O           -5.3020     1.3820     0.4600 o          1 1N1      -0.569100
     28 N3           4.1120     1.8880     0.7960 nb         1 1N1      -0.285000
     29 N4           1.7500     1.9170     0.6870 nb         1 1N1      -0.225000
     30 N5           5.3640     0.0350     0.2540 nh         1 1N1      -0.777300
     31 C17          7.7470     0.4440    -0.1210 c6         1 1N1       0.150800
     32 C18          6.7530    -1.4960    -1.0380 c6         1 1N1       0.150800
     33 O1          10.5080    -1.9290     0.5690 oh         1 1N1      -0.644000
     34 H1          -2.9190     2.4610     1.2590 h4         1 1N1       0.062100
     35 H7         -10.2430    -1.7340    -0.4880 ha         1 1N1       0.119000
     36 H8          -8.9500    -2.6770     1.3880 ha         1 1N1       0.117000
     37 H101        -5.5410    -3.0950     1.5730 hc         1 1N1       0.045700
     38 H102        -5.7890    -1.6080     2.4710 hc         1 1N1       0.045700
     39 H103        -6.9550    -2.9220     2.6020 hc         1 1N1       0.045700
     40 H12          2.9070    -1.1350    -0.0760 ha         1 1N1       0.126000
     41 H151         2.5860     4.5320     0.4680 hc         1 1N1       0.061033
     42 H152         2.2230     4.0850     2.1240 hc         1 1N1       0.061033
     43 H153         3.9110     4.2570     1.6040 hc         1 1N1       0.061033
     44 H161         6.3920     1.7030     0.9590 h1         1 1N1       0.059950
     45 H162         6.7860     0.1910     1.7780 h1         1 1N1       0.059950
     46 H191         5.6540    -1.9840     0.7530 h1         1 1N1       0.059950
     47 H192         4.6740    -1.7060    -0.6850 h1         1 1N1       0.059950
     48 H201         9.0740    -2.2280    -1.6010 h1         1 1N1       0.038200
     49 H202         9.1370    -0.5500    -2.1240 h1         1 1N1       0.038200
     50 H211        11.2360    -1.1750    -1.2320 h1         1 1N1       0.016700
     51 H212        10.5400     0.0210    -0.1530 h1         1 1N1       0.016700
     52 HN           0.6880    -0.9650    -0.2420 hn         1 1N1       0.508000
     53 HN2         -4.4610    -1.5970    -0.1200 hn         1 1N1       0.158000
     54 H6          -9.1160    -0.3500    -2.2020 ha         1 1N1       0.131000
     55 H171         8.6280     0.8500     0.3790 h1         1 1N1       0.040450
     56 H172         7.6000     1.0330    -1.0440 h1         1 1N1       0.040450
     57 H181         6.5350    -1.0050    -2.0020 h1         1 1N1       0.040450
     58 H182         6.8990    -2.5580    -1.2430 h1         1 1N1       0.040450
     59 HO1         11.3770    -1.8440     0.9710 ho         1 1N1       0.437000
@<TRIPOS>BOND
     1     1     2 2   
     2     1    20 1   
     3     1    34 1   
     4     2     3 1   
     5     2    21 1   
     6     3    22 1   
     7     3    27 2   
     8     4    16 1   
     9     4    31 1   
    10     4    32 1   
    11     5     6 ar  
    12     5    25 ar  
    13     5    35 1   
    14     6     7 ar  
    15     6    36 1   
    16     7     8 1   
    17     7    23 ar  
    18     8    37 1   
    19     8    38 1   
    20     8    39 1   
    21     9    10 ar  
    22     9    18 1   
    23     9    29 ar  
    24    10    11 ar  
    25    10    40 1   
    26    11    28 ar  
    27    11    30 1   
    28    12    13 1   
    29    12    28 ar  
    30    12    29 ar  
    31    13    41 1   
    32    13    42 1   
    33    13    43 1   
    34    14    30 1   
    35    14    31 1   
    36    14    44 1   
    37    14    45 1   
    38    15    30 1   
    39    15    32 1   
    40    15    46 1   
    41    15    47 1   
    42    16    17 1   
    43    16    48 1   
    44    16    49 1   
    45    17    33 1   
    46    17    50 1   
    47    17    51 1   
    48    18    19 1   
    49    18    52 1   
    50    19    20 2   
    51    19    21 1   
    52    22    23 1   
    53    22    53 1   
    54    23    24 ar  
    55    24    25 ar  
    56    24    26 1   
    57    25    54 1   
    58    31    55 1   
    59    31    56 1   
    60    32    57 1   
    61    32    58 1   
    62    33    59 1   
@<TRIPOS>SUBSTRUCTURE
     1 1N1         1 TEMP              0 ****  ****    0 ROOT
