@<TRIPOS>MOLECULE
1N1
   59    62     1     0     0
SMALL
No Charge or Current Charge


@<TRIPOS>ATOM
      1 C1          -2.5520     1.9230     0.6650 cc         1 1N1       0.387900
      2 C2          -3.2410     0.7730     0.3830 cd         1 1N1      -0.329600
      3 C3          -4.7120     0.7080     0.4190 c          1 1N1       0.661700
      4 N6           7.9540    -1.1610    -0.4150 n3         1 1N1      -0.702600
      5 C7          -9.1910    -1.9460    -0.2240 ca         1 1N1      -0.099000
      6 C8          -8.2850    -2.5800     0.6400 ca         1 1N1      -0.104000
      7 C9          -6.9580    -2.1200     0.7490 ca         1 1N1      -0.075300
      8 C10         -5.9940    -2.8270     1.6990 c3         1 1N1      -0.048800
      9 C11          1.6860     0.9160     0.2420 ca         1 1N1       0.399900
     10 C12          2.8590     0.1990     0.0040 ca         1 1N1      -0.364000
     11 C13          4.0810     0.8760     0.1440 ca         1 1N1       0.422900
     12 C14          2.9280     2.7790     0.7100 ca         1 1N1       0.210300
     13 C15          2.9740     4.2430     1.1090 c3         1 1N1      -0.135400
     14 C16          6.5240     0.5920     0.7670 c6         1 1N1       0.222300
     15 C19          5.4160    -1.1220    -0.6850 c6         1 1N1       0.222300
     16 C20          9.2640    -1.5160    -1.0360 c3         1 1N1       0.168800
     17 C21         10.5210    -1.4380    -0.1160 c3         1 1N1       0.166600
     18 N            0.4710     0.2600     0.1100 nu         1 1N1      -0.896800
     19 C           -0.8360     0.6080     0.2510 cd         1 1N1       0.741300
     20 N1          -1.1840     1.8300     0.5900 nc         1 1N1      -0.664000
     21 S           -2.1410    -0.5430    -0.0080 ss         1 1N1      -0.120400
     22 N2          -5.1990    -0.5490     0.1120 ns         1 1N1      -0.166000
     23 C4          -6.5400    -1.0010    -0.0110 ca         1 1N1      -0.041000
     24 C5          -7.4530    -0.3810    -0.8990 ca         1 1N1       0.133000
     25 C6          -8.7730    -0.8530    -0.9970 ca         1 1N1      -0.101000
     26 Cl          -6.9650     0.9380    -1.9660 cl         1 1N1      -0.183000
     27 O           -5.4190     1.6630     0.7140 o          1 1N1      -0.569100
     28 N3           4.1120     2.1730     0.5010 nb         1 1N1      -0.285000
     29 N4           1.7140     2.2110     0.5960 nb         1 1N1      -0.225000
     30 N5           5.3280     0.2470    -0.0770 nh         1 1N1      -0.777300
     31 C17          7.8840     0.2500     0.0780 c6         1 1N1       0.150800
     32 C18          6.8060    -1.4170    -1.3350 c6         1 1N1       0.150800
     33 O1          10.4300    -2.3500     0.9940 oh         1 1N1      -0.644000
     34 H1          -2.9840     2.8790     0.9360 h4         1 1N1       0.062100
     35 H7         -10.2130    -2.3100    -0.3040 ha         1 1N1       0.119000
     36 H8          -8.6180    -3.4330     1.2280 ha         1 1N1       0.117000
     37 H101        -5.1350    -3.2390     1.1550 hc         1 1N1       0.045700
     38 H102        -5.6120    -2.1360     2.4590 hc         1 1N1       0.045700
     39 H103        -6.4770    -3.6580     2.2260 hc         1 1N1       0.045700
     40 H12          2.8150    -0.8480    -0.2680 ha         1 1N1       0.126000
     41 H151         3.2400     4.8720     0.2510 hc         1 1N1       0.061033
     42 H152         2.0060     4.5910     1.4900 hc         1 1N1       0.061033
     43 H153         3.7180     4.4150     1.8950 hc         1 1N1       0.061033
     44 H161         6.5430     1.6620     1.0170 h1         1 1N1       0.059950
     45 H162         6.4700     0.0430     1.7190 h1         1 1N1       0.059950
     46 H191         5.2180    -1.8840     0.0840 h1         1 1N1       0.059950
     47 H192         4.6560    -1.2440    -1.4710 h1         1 1N1       0.059950
     48 H201         9.2130    -2.5410    -1.4290 h1         1 1N1       0.038200
     49 H202         9.4450    -0.8630    -1.9010 h1         1 1N1       0.038200
     50 H211        11.4060    -1.6780    -0.7190 h1         1 1N1       0.016700
     51 H212        10.6490    -0.4090     0.2460 h1         1 1N1       0.016700
     52 HN           0.5610    -0.7140    -0.1560 hn         1 1N1       0.508000
     53 HN2         -4.4920    -1.2550    -0.0430 hn         1 1N1       0.158000
     54 H6          -9.4680    -0.3760    -1.6840 ha         1 1N1       0.131000
     55 H171         8.6860     0.4480     0.8030 h1         1 1N1       0.040450
     56 H172         8.0330     0.9470    -0.7600 h1         1 1N1       0.040450
     57 H181         6.9040    -0.7950    -2.2370 h1         1 1N1       0.040450
     58 H182         6.8150    -2.4650    -1.6710 h1         1 1N1       0.040450
     59 HO1         11.2310    -2.2080     1.5450 ho         1 1N1       0.437000
@<TRIPOS>BOND
     1     1     2 2   
     2     1    20 1   
     3     1    34 1   
     4     2     3 1   
     5     2    21 1   
     6     3    22 1   
     7     3    27 2   
     8     4    16 1   
     9     4    31 1   
    10     4    32 1   
    11     5     6 ar  
    12     5    25 ar  
    13     5    35 1   
    14     6     7 ar  
    15     6    36 1   
    16     7     8 1   
    17     7    23 ar  
    18     8    37 1   
    19     8    38 1   
    20     8    39 1   
    21     9    10 ar  
    22     9    18 1   
    23     9    29 ar  
    24    10    11 ar  
    25    10    40 1   
    26    11    28 ar  
    27    11    30 1   
    28    12    13 1   
    29    12    28 ar  
    30    12    29 ar  
    31    13    41 1   
    32    13    42 1   
    33    13    43 1   
    34    14    30 1   
    35    14    31 1   
    36    14    44 1   
    37    14    45 1   
    38    15    30 1   
    39    15    32 1   
    40    15    46 1   
    41    15    47 1   
    42    16    17 1   
    43    16    48 1   
    44    16    49 1   
    45    17    33 1   
    46    17    50 1   
    47    17    51 1   
    48    18    19 1   
    49    18    52 1   
    50    19    20 2   
    51    19    21 1   
    52    22    23 1   
    53    22    53 1   
    54    23    24 ar  
    55    24    25 ar  
    56    24    26 1   
    57    25    54 1   
    58    31    55 1   
    59    31    56 1   
    60    32    57 1   
    61    32    58 1   
    62    33    59 1   
@<TRIPOS>SUBSTRUCTURE
     1 1N1         1 TEMP              0 ****  ****    0 ROOT
