@<TRIPOS>MOLECULE
1N2
   28    29     1     0     0
SMALL
abcg2


@<TRIPOS>ATOM
      1 OAA          2.1110    -2.2720     0.2010 o          1 1N2      -0.491500
      2 CAK          2.5660    -1.1600     0.0890 c          1 1N2       0.563750
      3 CAE          3.9790    -0.7730    -0.2590 c5         1 1N2      -0.168400
      4 CAF          3.9810     0.7500    -0.2720 c5         1 1N2      -0.168400
      5 CAL          2.5680     1.1470     0.0640 c          1 1N2       0.563750
      6 OAB          2.1140     2.2610     0.1500 o          1 1N2      -0.491500
      7 NAO          1.8340    -0.0040     0.2720 n          1 1N2      -0.390400
      8 CAI          0.4310     0.0010     0.6210 c3         1 1N2       0.086000
      9 CAJ         -0.4480    -0.0260    -0.6260 c3         1 1N2       0.086000
     10 NAP         -1.8500    -0.0220    -0.2760 n          1 1N2      -0.390400
     11 CAM         -2.5840     1.1340    -0.0990 c          1 1N2       0.563750
     12 OAC         -2.1320     2.2460    -0.2170 o          1 1N2      -0.491500
     13 CAG         -3.9970     0.7460     0.2510 c5         1 1N2      -0.168400
     14 CAH         -3.9960    -0.7770     0.2720 c5         1 1N2      -0.168400
     15 CAN         -2.5820    -1.1730    -0.0620 c          1 1N2       0.563750
     16 OAD         -2.1270    -2.2870    -0.1420 o          1 1N2      -0.491500
     17 H1           4.6570    -1.1950     0.4840 hc         1 1N2       0.086700
     18 H2           4.6570     1.1810     0.4670 hc         1 1N2       0.086700
     19 H3           0.2320    -0.8660     1.2500 h1         1 1N2       0.075200
     20 H4           0.2300     0.8930     1.2120 h1         1 1N2       0.075200
     21 H5          -0.2490     0.8410    -1.2540 h1         1 1N2       0.075200
     22 H6          -0.2450    -0.9180    -1.2180 h1         1 1N2       0.075200
     23 H7          -4.2620     1.1870     1.2120 hc         1 1N2       0.086700
     24 H8          -4.2670    -1.1930     1.2420 hc         1 1N2       0.086700
     25 H9           4.2430    -1.2100    -1.2220 hc         1 1N2       0.086700
     26 H10          4.2520     1.1700    -1.2400 hc         1 1N2       0.086700
     27 H11         -4.6760     1.1630    -0.4930 hc         1 1N2       0.086700
     28 H12         -4.6710    -1.2130    -0.4650 hc         1 1N2       0.086700
@<TRIPOS>BOND
     1     1     2 2   
     2     2     3 1   
     3     2     7 1   
     4     3     4 1   
     5     3    17 1   
     6     3    25 1   
     7     4     5 1   
     8     4    18 1   
     9     4    26 1   
    10     5     6 2   
    11     5     7 1   
    12     7     8 1   
    13     8     9 1   
    14     8    19 1   
    15     8    20 1   
    16     9    10 1   
    17     9    21 1   
    18     9    22 1   
    19    10    11 1   
    20    10    15 1   
    21    11    12 2   
    22    11    13 1   
    23    13    14 1   
    24    13    23 1   
    25    13    27 1   
    26    14    15 1   
    27    14    24 1   
    28    14    28 1   
    29    15    16 2   
@<TRIPOS>SUBSTRUCTURE
     1 1N2         1 TEMP              0 ****  ****    0 ROOT
