@<TRIPOS>MOLECULE
1N2
   28    29     1     0     0
SMALL
No Charge or Current Charge


@<TRIPOS>ATOM
      1 OAA          2.3050    -2.1780     0.8050 o          1 1N2      -0.491500
      2 CAK          2.6200    -1.1540     0.2190 c          1 1N2       0.563750
      3 CAE          3.9510    -0.7650    -0.4420 c5         1 1N2      -0.168400
      4 CAF          4.0650     0.7490    -0.0870 c5         1 1N2      -0.168400
      5 CAL          2.5960     1.1970    -0.0790 c          1 1N2       0.563750
      6 OAB          2.0950     2.2520    -0.4380 o          1 1N2      -0.491500
      7 NAO          1.8950     0.0320     0.2110 n          1 1N2      -0.390400
      8 CAI          0.4670     0.0730     0.5980 c3         1 1N2       0.086000
      9 CAJ         -0.4830    -0.1000    -0.6020 c3         1 1N2       0.086000
     10 NAP         -1.9120    -0.0590    -0.2160 n          1 1N2      -0.390400
     11 CAM         -2.6370     1.1270    -0.2230 c          1 1N2       0.563750
     12 OAC         -2.3210     2.1510    -0.8090 o          1 1N2      -0.491500
     13 CAG         -3.9670     0.7390     0.4380 c5         1 1N2      -0.168400
     14 CAH         -4.0810    -0.7750     0.0830 c5         1 1N2      -0.168400
     15 CAN         -2.6120    -1.2230     0.0750 c          1 1N2       0.563750
     16 OAD         -2.1120    -2.2780     0.4340 o          1 1N2      -0.491500
     17 H1           4.7760    -1.4060    -0.1140 hc         1 1N2       0.086700
     18 H2           4.4420     0.8390     0.9380 hc         1 1N2       0.086700
     19 H3           0.2620    -0.7160     1.3340 h1         1 1N2       0.075200
     20 H4           0.2530     1.0330     1.0870 h1         1 1N2       0.075200
     21 H5          -0.2790     0.6890    -1.3380 h1         1 1N2       0.075200
     22 H6          -0.2700    -1.0600    -1.0910 h1         1 1N2       0.075200
     23 H7          -3.8380     0.8300     1.5220 hc         1 1N2       0.086700
     24 H8          -4.6940    -1.3880     0.7520 hc         1 1N2       0.086700
     25 H9           3.8210    -0.8570    -1.5260 hc         1 1N2       0.086700
     26 H10          4.6770     1.3620    -0.7560 hc         1 1N2       0.086700
     27 H11         -4.7920     1.3800     0.1100 hc         1 1N2       0.086700
     28 H12         -4.4590    -0.8650    -0.9420 hc         1 1N2       0.086700
@<TRIPOS>BOND
     1     1     2 2   
     2     2     3 1   
     3     2     7 1   
     4     3     4 1   
     5     3    17 1   
     6     3    25 1   
     7     4     5 1   
     8     4    18 1   
     9     4    26 1   
    10     5     6 2   
    11     5     7 1   
    12     7     8 1   
    13     8     9 1   
    14     8    19 1   
    15     8    20 1   
    16     9    10 1   
    17     9    21 1   
    18     9    22 1   
    19    10    11 1   
    20    10    15 1   
    21    11    12 2   
    22    11    13 1   
    23    13    14 1   
    24    13    23 1   
    25    13    27 1   
    26    14    15 1   
    27    14    24 1   
    28    14    28 1   
    29    15    16 2   
@<TRIPOS>SUBSTRUCTURE
     1 1N2         1 TEMP              0 ****  ****    0 ROOT
