@<TRIPOS>MOLECULE
1N3
   55    58     1     0     0
SMALL
No Charge or Current Charge


@<TRIPOS>ATOM
      1 C1           8.3040     4.5580     0.8450 c3         1 1N3       0.146900
      2 O2           6.8830     4.5970     0.6210 os         1 1N3      -0.336100
      3 C3           6.1320     3.4500     0.4590 ca         1 1N3       0.160100
      4 C4           4.7540     3.5930     0.2450 ca         1 1N3      -0.178000
      5 C5           3.9360     2.4640     0.0730 ca         1 1N3      -0.042500
      6 C6           4.4870     1.1640     0.1120 ca         1 1N3      -0.158900
      7 C7           5.8780     1.0260     0.3280 ca         1 1N3      -0.042500
      8 C8           6.6940     2.1580     0.5000 ca         1 1N3      -0.178000
      9 C9           3.6240    -0.0120    -0.0690 cc         1 1N3       0.484400
     10 N10          4.0770    -1.3260    -0.0430 na         1 1N3      -0.410300
     11 C11          3.0280    -2.1510    -0.2430 ca         1 1N3       0.375500
     12 C12          1.9440    -1.3240    -0.3850 ca         1 1N3      -0.038600
     13 N13          2.2970     0.0300    -0.2810 nd         1 1N3      -0.581100
     14 C14          0.6700    -1.8820    -0.6040 ca         1 1N3       0.418000
     15 C15          0.5850    -3.2870    -0.6960 ca         1 1N3      -0.163900
     16 C16          1.7650    -4.0420    -0.5360 ca         1 1N3       0.410900
     17 N17          2.9820    -3.4890    -0.3060 nb         1 1N3      -0.691000
     18 Br1         -1.0560    -4.2110    -1.0940 br         1 1N3      -0.085100
     19 N19         -0.4310    -1.0290    -0.7480 nu         1 1N3      -0.919200
     20 C20         -1.5670    -0.9950     0.1840 c3         1 1N3       0.205800
     21 C21         -2.5990     0.0510    -0.2750 c3         1 1N3      -0.101400
     22 C22         -3.8180     0.1230     0.6620 c3         1 1N3       0.109000
     23 N23         -4.7860     1.1180     0.2110 ns         1 1N3      -0.506900
     24 C24         -5.9300     1.4660     0.8760 c          1 1N3       0.629100
     25 O25         -6.2480     0.9590     1.9440 o          1 1N3      -0.627100
     26 C26         -6.7480     2.5340     0.1710 cx         1 1N3      -0.225000
     27 C27         -6.4800     3.9730     0.5810 cx         1 1N3      -0.101400
     28 C28         -7.7660     3.3040     1.0000 cx         1 1N3      -0.101400
     29 C29         -7.0780     2.2190    -1.2830 c3         1 1N3       0.182800
     30 N30         -5.9010     2.4510    -2.1390 n8         1 1N3      -1.021200
     31 H1           8.7010     5.5760     0.9460 h1         1 1N3       0.044033
     32 H2           8.5390     4.0090     1.7660 h1         1 1N3       0.044033
     33 H3           8.8190     4.0740     0.0050 h1         1 1N3       0.044033
     34 H4           4.3160     4.5880     0.2130 ha         1 1N3       0.127000
     35 H5           2.8700     2.6070    -0.0910 ha         1 1N3       0.122000
     36 H6           6.3410     0.0420     0.3650 ha         1 1N3       0.122000
     37 H7           7.7580     2.0110     0.6630 ha         1 1N3       0.127000
     38 H8           5.0280    -1.6210     0.0990 hn         1 1N3       0.369000
     39 H10          1.7370    -5.1290    -0.6060 h4         1 1N3       0.034100
     40 H11         -0.0930    -0.0940    -0.9860 hn         1 1N3       0.477000
     41 H12         -2.0570    -1.9750     0.2440 h1         1 1N3       0.048700
     42 H13         -1.2150    -0.7370     1.1930 h1         1 1N3       0.048700
     43 H14         -2.1230     1.0380    -0.3220 hc         1 1N3       0.056200
     44 H15         -2.9390    -0.1980    -1.2880 hc         1 1N3       0.056200
     45 H16         -4.3120    -0.8570     0.7020 h1         1 1N3       0.046200
     46 H17         -3.4870     0.3860     1.6760 h1         1 1N3       0.046200
     47 H18         -4.6840     1.5510    -0.7050 hn         1 1N3       0.356500
     48 H19         -5.7310     4.1540     1.3490 hc         1 1N3       0.080700
     49 H20         -6.5420     4.7480    -0.1800 hc         1 1N3       0.080700
     50 H21         -8.6840     3.6310     0.5160 hc         1 1N3       0.080700
     51 H22         -7.8810     3.0540     2.0520 hc         1 1N3       0.080700
     52 H23         -7.3930     1.1700    -1.3760 h1         1 1N3       0.040700
     53 H24         -7.8990     2.8580    -1.6370 h1         1 1N3       0.040700
     54 H25         -6.1630     2.2710    -3.1170 hn         1 1N3       0.406500
     55 H26         -5.6900     3.4560    -2.1350 hn         1 1N3       0.406500
@<TRIPOS>BOND
     1     1     2 1   
     2     1    31 1   
     3     1    32 1   
     4     1    33 1   
     5     2     3 1   
     6     3     4 ar  
     7     3     8 ar  
     8     4     5 ar  
     9     4    34 1   
    10     5     6 ar  
    11     5    35 1   
    12     6     7 ar  
    13     6     9 1   
    14     7     8 ar  
    15     7    36 1   
    16     8    37 1   
    17     9    10 1   
    18     9    13 2   
    19    10    11 1   
    20    10    38 1   
    21    11    12 ar  
    22    11    17 ar  
    23    12    13 1   
    24    12    14 ar  
    25    14    15 ar  
    26    14    19 1   
    27    15    16 ar  
    28    15    18 1   
    29    16    17 ar  
    30    16    39 1   
    31    19    20 1   
    32    19    40 1   
    33    20    21 1   
    34    20    41 1   
    35    20    42 1   
    36    21    22 1   
    37    21    43 1   
    38    21    44 1   
    39    22    23 1   
    40    22    45 1   
    41    22    46 1   
    42    23    24 1   
    43    23    47 1   
    44    24    25 2   
    45    24    26 1   
    46    26    27 1   
    47    26    28 1   
    48    26    29 1   
    49    27    28 1   
    50    27    48 1   
    51    27    49 1   
    52    28    50 1   
    53    28    51 1   
    54    29    30 1   
    55    29    52 1   
    56    29    53 1   
    57    30    54 1   
    58    30    55 1   
@<TRIPOS>SUBSTRUCTURE
     1 1N3         1 TEMP              0 ****  ****    0 ROOT
