@<TRIPOS>MOLECULE
1N3
   55    58     1     0     0
SMALL
abcg2


@<TRIPOS>ATOM
      1 C1           9.0650     3.8530     0.7400 c3         1 1N3       0.146900
      2 O2           7.7020     4.1400     0.4890 os         1 1N3      -0.336100
      3 C3           6.8410     3.1200     0.3650 ca         1 1N3       0.160100
      4 C4           5.5070     3.4630     0.1140 ca         1 1N3      -0.178000
      5 C5           4.5530     2.4810    -0.0350 ca         1 1N3      -0.042500
      6 C6           4.8920     1.1270     0.0610 ca         1 1N3      -0.158900
      7 C7           6.2200     0.7970     0.3170 ca         1 1N3      -0.042500
      8 C8           7.1910     1.7760     0.4690 ca         1 1N3      -0.178000
      9 C9           3.8540     0.1170    -0.1010 cc         1 1N3       0.484400
     10 N10          4.1150    -1.2180    -0.2130 na         1 1N3      -0.410300
     11 C11          2.9190    -1.8580    -0.3570 ca         1 1N3       0.375500
     12 C12          1.9670    -0.8390    -0.3160 ca         1 1N3      -0.038600
     13 N13          2.5710     0.3750    -0.1550 nd         1 1N3      -0.581100
     14 C14          0.6030    -1.1510    -0.4190 ca         1 1N3       0.418000
     15 C15          0.3630    -2.5230    -0.5950 ca         1 1N3      -0.163900
     16 C16          1.4060    -3.4570    -0.6050 ca         1 1N3       0.410900
     17 N17          2.6900    -3.1540    -0.4810 nb         1 1N3      -0.691000
     18 BR1         -1.3690    -3.1690    -0.9790 br         1 1N3      -0.085100
     19 N19         -0.3320    -0.1540    -0.4060 nu         1 1N3      -0.919200
     20 C20         -1.4710    -0.1400     0.5060 c3         1 1N3       0.205800
     21 C21         -2.7030     0.4520    -0.1550 c3         1 1N3      -0.101400
     22 C22         -3.8670     0.5320     0.8190 c3         1 1N3       0.109000
     23 N23         -5.0140     1.1380     0.1820 ns         1 1N3      -0.506900
     24 C24         -6.1820     1.3010     0.8150 c          1 1N3       0.629100
     25 O25         -6.3760     0.9130     1.9640 o          1 1N3      -0.627100
     26 C26         -7.2420     2.0180     0.0240 cx         1 1N3      -0.225000
     27 C27         -7.8360     3.2300     0.7060 cx         1 1N3      -0.101400
     28 C28         -8.6310     1.9770     0.5930 cx         1 1N3      -0.101400
     29 C29         -7.1240     2.0490    -1.4860 c3         1 1N3       0.182800
     30 N30         -5.9110     2.7280    -1.9260 n8         1 1N3      -1.021200
     31 H1           9.5780     4.8110     0.7860 h1         1 1N3       0.044033
     32 H2           9.2030     3.3340     1.6920 h1         1 1N3       0.044033
     33 H3           9.5080     3.2530    -0.0580 h1         1 1N3       0.044033
     34 H4           5.2320     4.5070     0.0310 ha         1 1N3       0.127000
     35 H5           3.5280     2.7620    -0.2340 ha         1 1N3       0.122000
     36 H6           6.5300    -0.2350     0.4170 ha         1 1N3       0.122000
     37 H7           8.2070     1.4690     0.6710 ha         1 1N3       0.127000
     38 H8           5.0200    -1.6630    -0.2280 hn         1 1N3       0.369000
     39 H10          1.1720    -4.5070    -0.7330 h4         1 1N3       0.034100
     40 H11          0.1090     0.7550    -0.4500 hn         1 1N3       0.477000
     41 H12         -1.6800    -1.1470     0.8620 h1         1 1N3       0.048700
     42 H13         -1.2100     0.4440     1.3950 h1         1 1N3       0.048700
     43 H14         -2.4660     1.4540    -0.5270 hc         1 1N3       0.056200
     44 H15         -2.9810    -0.1540    -1.0220 hc         1 1N3       0.056200
     45 H16         -4.1260    -0.4700     1.1700 h1         1 1N3       0.046200
     46 H17         -3.5690     1.1060     1.7040 h1         1 1N3       0.046200
     47 H18         -4.9050     1.6430    -0.7010 hn         1 1N3       0.356500
     48 H19         -7.4460     3.5030     1.6790 hc         1 1N3       0.080700
     49 H20         -8.0980     4.0730     0.0780 hc         1 1N3       0.080700
     50 H21         -9.4500     1.9500    -0.1160 hc         1 1N3       0.080700
     51 H22         -8.7900     1.3900     1.4870 hc         1 1N3       0.080700
     52 H23         -7.0910     1.0240    -1.8630 h1         1 1N3       0.040700
     53 H24         -8.0390     2.4980    -1.8920 h1         1 1N3       0.040700
     54 H25         -5.8270     2.6670    -2.9330 hn         1 1N3       0.406500
     55 H26         -5.9640     3.7140    -1.6990 hn         1 1N3       0.406500
@<TRIPOS>BOND
     1     1     2 1   
     2     1    31 1   
     3     1    32 1   
     4     1    33 1   
     5     2     3 1   
     6     3     4 ar  
     7     3     8 ar  
     8     4     5 ar  
     9     4    34 1   
    10     5     6 ar  
    11     5    35 1   
    12     6     7 ar  
    13     6     9 1   
    14     7     8 ar  
    15     7    36 1   
    16     8    37 1   
    17     9    10 1   
    18     9    13 2   
    19    10    11 1   
    20    10    38 1   
    21    11    12 ar  
    22    11    17 ar  
    23    12    13 1   
    24    12    14 ar  
    25    14    15 ar  
    26    14    19 1   
    27    15    16 ar  
    28    15    18 1   
    29    16    17 ar  
    30    16    39 1   
    31    19    20 1   
    32    19    40 1   
    33    20    21 1   
    34    20    41 1   
    35    20    42 1   
    36    21    22 1   
    37    21    43 1   
    38    21    44 1   
    39    22    23 1   
    40    22    45 1   
    41    22    46 1   
    42    23    24 1   
    43    23    47 1   
    44    24    25 2   
    45    24    26 1   
    46    26    27 1   
    47    26    28 1   
    48    26    29 1   
    49    27    28 1   
    50    27    48 1   
    51    27    49 1   
    52    28    50 1   
    53    28    51 1   
    54    29    30 1   
    55    29    52 1   
    56    29    53 1   
    57    30    54 1   
    58    30    55 1   
@<TRIPOS>SUBSTRUCTURE
     1 1N3         1 TEMP              0 ****  ****    0 ROOT
