@<TRIPOS>MOLECULE
1N4
   26    26     1     0     0
SMALL
bcc


@<TRIPOS>ATOM
      1 CAA          4.1770     0.7430    -0.1650 c3         1 1N4      -0.084100
      2 CAG          2.8180     0.2420     0.2990 c3         1 1N4      -0.085400
      3 CAH          2.1890    -0.7430    -0.6900 c3         1 1N4       0.024900
      4 CAK          0.8520    -1.2410    -0.2490 cc         1 1N4      -0.284600
      5 CAF          0.5200    -2.4870     0.2950 cc         1 1N4       0.264200
      6 NAI         -0.7650    -2.5510     0.6390 nd         1 1N4      -0.533800
      7 NAN         -1.2440    -1.3750     0.3110 na         1 1N4       0.293300
      8 OAE         -2.5380    -1.0940     0.5420 oh         1 1N4      -0.524200
      9 CAL         -0.3440    -0.5330    -0.2290 cd         1 1N4      -0.137600
     10 CA          -0.6770     0.8600    -0.6780 c3         1 1N4       0.082800
     11 C           -1.1630     1.7270     0.5050 c          1 1N4       0.950600
     12 O           -2.1460     1.2590     1.1640 o          1 1N4      -0.789800
     13 OXT         -0.6040     2.7980     0.7310 o          1 1N4      -0.789800
     14 N           -1.6650     0.9500    -1.7520 n8         1 1N4      -0.867800
     15 H1           4.6080     1.4480     0.5470 hc         1 1N4       0.020367
     16 H2           4.8840    -0.0810    -0.2810 hc         1 1N4       0.020367
     17 H3           4.1030     1.2500    -1.1290 hc         1 1N4       0.020367
     18 H4           2.9100    -0.2420     1.2750 hc         1 1N4       0.054200
     19 H5           2.1420     1.0900     0.4440 hc         1 1N4       0.054200
     20 H6           2.1120    -0.2610    -1.6700 hc         1 1N4       0.025700
     21 H7           2.8620    -1.5940    -0.8240 hc         1 1N4       0.025700
     22 H8           1.1670    -3.3380     0.4490 h4         1 1N4       0.014100
     23 H9          -2.4980    -0.1000     0.8640 ho         1 1N4       0.512000
     24 H10          0.2500     1.2970    -1.0550 h1         1 1N4       0.072700
     25 H12         -1.3310     0.4290    -2.5540 hn         1 1N4       0.329800
     26 H13         -2.5280     0.5030    -1.4710 hn         1 1N4       0.329800
@<TRIPOS>BOND
     1     1     2 1   
     2     1    15 1   
     3     1    16 1   
     4     1    17 1   
     5     2     3 1   
     6     2    18 1   
     7     2    19 1   
     8     3     4 1   
     9     3    20 1   
    10     3    21 1   
    11     4     5 1   
    12     4     9 2   
    13     5     6 2   
    14     5    22 1   
    15     6     7 1   
    16     7     8 1   
    17     7     9 1   
    18     8    23 1   
    19     9    10 1   
    20    10    11 1   
    21    10    14 1   
    22    10    24 1   
    23    11    12 1   
    24    11    13 1   
    25    14    25 1   
    26    14    26 1   
@<TRIPOS>SUBSTRUCTURE
     1 1N4         1 TEMP              0 ****  ****    0 ROOT
