@<TRIPOS>MOLECULE
1N4
   26    26     1     0     0
SMALL
No Charge or Current Charge


@<TRIPOS>ATOM
      1 CAA          4.2950     0.6290    -0.1780 c3         1 1N4      -0.084100
      2 CAG          2.9210     0.1390     0.3190 c3         1 1N4      -0.085400
      3 CAH          2.1280    -0.6370    -0.7530 c3         1 1N4       0.024900
      4 CAK          0.7880    -1.1030    -0.2490 cc         1 1N4      -0.219300
      5 CAF          0.5590    -2.3550     0.3590 cc         1 1N4       0.198900
      6 NAI         -0.6800    -2.5580     0.7560 nd         1 1N4      -0.533800
      7 NAN         -1.2730    -1.3860     0.3680 na         1 1N4       0.383800
      8 OAE         -2.6010    -1.1440     0.5890 oh         1 1N4      -0.603000
      9 CAL         -0.4170    -0.4600    -0.2360 cd         1 1N4      -0.188300
     10 CA          -0.7840     0.9480    -0.6650 c3         1 1N4       0.082800
     11 C           -1.3720     1.8410     0.5120 c          1 1N4       0.740000
     12 O           -2.2580     1.3600     1.2150 o          1 1N4      -0.684500
     13 OXT         -0.9230     2.9690     0.6710 o          1 1N4      -0.684500
     14 N           -1.6080     0.8360    -1.9170 n8         1 1N4      -0.978200
     15 H1           4.8180     1.1730     0.6180 hc         1 1N4       0.020367
     16 H2           4.9220    -0.2180    -0.4840 hc         1 1N4       0.020367
     17 H3           4.1800     1.3030    -1.0360 hc         1 1N4       0.020367
     18 H4           3.0650    -0.5030     1.1960 hc         1 1N4       0.054200
     19 H5           2.3310     1.0030     0.6490 hc         1 1N4       0.054200
     20 H6           1.9920    -0.0010    -1.6360 hc         1 1N4       0.025700
     21 H7           2.7190    -1.5010    -1.0810 hc         1 1N4       0.025700
     22 H8           1.2890    -3.1350     0.5330 h4         1 1N4       0.014100
     23 H9          -2.5730    -0.2330     0.9980 ho         1 1N4       0.551000
     24 H10          0.1520     1.4490    -0.9500 h1         1 1N4       0.072700
     25 H12         -1.1150     0.2270    -2.5790 hn         1 1N4       0.385000
     26 H13         -2.4640     0.3120    -1.7000 hn         1 1N4       0.385000
@<TRIPOS>BOND
     1     1     2 1   
     2     1    15 1   
     3     1    16 1   
     4     1    17 1   
     5     2     3 1   
     6     2    18 1   
     7     2    19 1   
     8     3     4 1   
     9     3    20 1   
    10     3    21 1   
    11     4     5 1   
    12     4     9 2   
    13     5     6 2   
    14     5    22 1   
    15     6     7 1   
    16     7     8 1   
    17     7     9 1   
    18     8    23 1   
    19     9    10 1   
    20    10    11 1   
    21    10    14 1   
    22    10    24 1   
    23    11    12 1   
    24    11    13 1   
    25    14    25 1   
    26    14    26 1   
@<TRIPOS>SUBSTRUCTURE
     1 1N4         1 TEMP              0 ****  ****    0 ROOT
