@<TRIPOS>MOLECULE
1N5
   25    24     1     0     0
SMALL
abcg2


@<TRIPOS>ATOM
      1 C1           3.2630     0.2490    -0.3830 c          1 1N5       0.689000
      2 C2           1.9960    -0.2890     0.3160 c3         1 1N5       0.026300
      3 C3           0.7390     0.2960    -0.3210 c3         1 1N5      -0.101400
      4 O4          -0.6140     0.0700     1.6930 oh         1 1N5      -0.659000
      5 C4          -0.5630    -0.1970     0.3030 c3         1 1N5       0.166300
      6 C5          -1.7720     0.3780    -0.4300 c3         1 1N5      -0.112400
      7 C6          -3.1070    -0.1410     0.0860 c3         1 1N5      -0.077400
      8 O2           1.9920    -1.6960     0.2550 oh         1 1N5      -0.710000
      9 O7          -5.4790    -0.0920    -0.1870 oh         1 1N5      -0.665000
     10 O1A          3.4500     1.4760    -0.3800 o          1 1N5      -0.724000
     11 O1B          3.9940    -0.6300    -0.8960 o          1 1N5      -0.724000
     12 H2           2.0340     0.0340     1.3660 h1         1 1N5       0.036700
     13 H3           0.7820     1.3880    -0.2510 hc         1 1N5       0.042200
     14 H3A          0.7260     0.0570    -1.3900 hc         1 1N5       0.042200
     15 H7          -4.2460     1.5160    -0.6630 h1         1 1N5       0.010700
     16 H7A         -4.1480     0.1490    -1.7680 h1         1 1N5       0.010700
     17 H4          -0.6020    -1.2880     0.2200 h1         1 1N5       0.080700
     18 H5          -1.7450     1.4730    -0.3670 hc         1 1N5       0.035200
     19 H5A         -1.6720     0.1370    -1.4940 hc         1 1N5       0.035200
     20 H6          -3.2280     0.1230     1.1390 hc         1 1N5       0.055200
     21 H6A         -3.1220    -1.2340     0.0270 hc         1 1N5       0.055200
     22 HO2          2.7900    -1.8770    -0.2760 ho         1 1N5       0.471000
     23 HO7         -6.2010     0.2390    -0.7270 ho         1 1N5       0.430000
     24 C7          -4.2700     0.4180    -0.7100 c3         1 1N5       0.158600
     25 HO4         -0.5500     1.0240     1.8150 ho         1 1N5       0.426000
@<TRIPOS>BOND
     1     1     2 1   
     2     1    10 1   
     3     1    11 1   
     4     2     3 1   
     5     2     8 1   
     6     2    12 1   
     7     3     5 1   
     8     3    13 1   
     9     3    14 1   
    10     4     5 1   
    11     4    25 1   
    12     5     6 1   
    13     5    17 1   
    14     6     7 1   
    15     6    18 1   
    16     6    19 1   
    17     7    20 1   
    18     7    21 1   
    19     7    24 1   
    20     8    22 1   
    21     9    23 1   
    22     9    24 1   
    23    15    24 1   
    24    16    24 1   
@<TRIPOS>SUBSTRUCTURE
     1 1N5         1 TEMP              0 ****  ****    0 ROOT
