@<TRIPOS>MOLECULE
1N5
   25    24     1     0     0
SMALL
No Charge or Current Charge


@<TRIPOS>ATOM
      1 C1           3.3600     0.2910    -0.2550 c          1 1N5       0.689000
      2 C2           2.0480    -0.3780     0.3000 c3         1 1N5       0.026300
      3 C3           0.7800     0.2590    -0.3310 c3         1 1N5      -0.101400
      4 O4          -0.5970     0.3640     1.6750 oh         1 1N5      -0.659000
      5 C4          -0.5550    -0.1560     0.3390 c3         1 1N5       0.166300
      6 C5          -1.7860     0.3650    -0.4460 c3         1 1N5      -0.112400
      7 C6          -3.1460    -0.1200     0.1140 c3         1 1N5      -0.077400
      8 O2           2.0350    -1.8110     0.0590 oh         1 1N5      -0.710000
      9 O7          -5.5660    -0.1160    -0.1490 oh         1 1N5      -0.665000
     10 O1A          3.7250     1.3570     0.2220 o          1 1N5      -0.724000
     11 O1B          4.0250    -0.3480    -1.0620 o          1 1N5      -0.724000
     12 H2           2.0340    -0.1850     1.3810 h1         1 1N5       0.036700
     13 H3           0.8720     1.3510    -0.2920 hc         1 1N5       0.042200
     14 H3A          0.7490    -0.0060    -1.3960 hc         1 1N5       0.042200
     15 H7          -4.3510     1.4720    -0.7330 h1         1 1N5       0.010700
     16 H7A         -4.2440     0.0200    -1.7520 h1         1 1N5       0.010700
     17 H4          -0.6040    -1.2550     0.3570 h1         1 1N5       0.080700
     18 H5          -1.7720     1.4620    -0.4650 hc         1 1N5       0.035200
     19 H5A         -1.7030     0.0330    -1.4880 hc         1 1N5       0.035200
     20 H6          -3.2650     0.2260     1.1480 hc         1 1N5       0.055200
     21 H6A         -3.1550    -1.2170     0.1390 hc         1 1N5       0.055200
     22 HO2          2.7910    -1.9640    -0.5600 ho         1 1N5       0.471000
     23 HO7         -6.2980     0.2240    -0.7090 ho         1 1N5       0.430000
     24 C7          -4.3480     0.3740    -0.7170 c3         1 1N5       0.158600
     25 HO4         -0.5830     1.3410     1.5990 ho         1 1N5       0.426000
@<TRIPOS>BOND
     1     1     2 1   
     2     1    10 1   
     3     1    11 1   
     4     2     3 1   
     5     2     8 1   
     6     2    12 1   
     7     3     5 1   
     8     3    13 1   
     9     3    14 1   
    10     4     5 1   
    11     4    25 1   
    12     5     6 1   
    13     5    17 1   
    14     6     7 1   
    15     6    18 1   
    16     6    19 1   
    17     7    20 1   
    18     7    21 1   
    19     7    24 1   
    20     8    22 1   
    21     9    23 1   
    22     9    24 1   
    23    15    24 1   
    24    16    24 1   
@<TRIPOS>SUBSTRUCTURE
     1 1N5         1 TEMP              0 ****  ****    0 ROOT
