@<TRIPOS>MOLECULE
1N6
   51    54     1     0     0
SMALL
No Charge or Current Charge


@<TRIPOS>ATOM
      1 FAC         -7.0520    -1.6700     0.1140 f          1 1N6      -0.114333
      2 CBD         -6.1190    -0.9430    -0.5430 c3         1 1N6       0.355300
      3 FAD         -6.1230    -1.3640    -1.8270 f          1 1N6      -0.114333
      4 FAE         -6.5590     0.3360    -0.5450 f          1 1N6      -0.114333
      5 CAV         -4.7230    -1.0750     0.0820 ca         1 1N6      -0.169300
      6 CAK         -3.7690    -0.0440    -0.0730 ca         1 1N6      -0.118000
      7 CAI         -4.3600    -2.2350     0.8000 ca         1 1N6      -0.091000
      8 CAF         -3.0800    -2.3460     1.3650 ca         1 1N6      -0.097000
      9 CAH         -2.1450    -1.3090     1.2100 ca         1 1N6      -0.106000
     10 CAU         -2.4780    -0.1540     0.4760 ca         1 1N6       0.311000
     11 NAR         -1.5900     0.9140     0.2960 nu         1 1N6      -0.934900
     12 C6          -0.2170     1.0770     0.2870 ca         1 1N6       0.478900
     13 N1           0.5420    -0.0190     0.4140 nb         1 1N6      -0.350000
     14 C5           0.3460     2.3460     0.1130 ca         1 1N6      -0.397600
     15 CAY         -0.4420     3.6020    -0.0750 c          1 1N6       0.599600
     16 OAB         -1.6630     3.6260    -0.1180 o          1 1N6      -0.603000
     17 NAT          0.2870     4.7600    -0.2140 ns         1 1N6      -0.373100
     18 CAG          1.6700     4.8620    -0.2090 cc         1 1N6      -0.019400
     19 CAJ          2.4000     3.7080    -0.0510 cd         1 1N6      -0.388800
     20 C4           1.7420     2.4190     0.1120 ca         1 1N6       0.293800
     21 N3           2.5140     1.3320     0.2530 nb         1 1N6      -0.295000
     22 C2           1.8640     0.1660     0.3900 ca         1 1N6       0.453900
     23 NAS          2.6110    -0.9910     0.5370 nu         1 1N6      -0.909100
     24 CBC          4.0730    -1.1060     0.4050 c6         1 1N6       0.240500
     25 CAN          4.5440    -2.4130     1.0950 c6         1 1N6      -0.088900
     26 CAL          6.0720    -2.6180     0.9270 c6         1 1N6      -0.087900
     27 CBB          6.4740    -2.6150    -0.5700 c6         1 1N6       0.151500
     28 NAA          7.9340    -2.7730    -0.7090 n8         1 1N6      -0.987200
     29 CAM          6.0030    -1.3130    -1.2670 c6         1 1N6      -0.087900
     30 CAO          4.4760    -1.1080    -1.0950 c6         1 1N6      -0.088900
     31 H1          -4.0270     0.8490    -0.6360 ha         1 1N6       0.134000
     32 H2          -5.0680    -3.0520     0.9270 ha         1 1N6       0.131000
     33 H3          -2.8120    -3.2370     1.9300 ha         1 1N6       0.118000
     34 H4          -1.1720    -1.4060     1.6770 ha         1 1N6       0.151000
     35 H5          -2.0460     1.8040     0.0680 hn         1 1N6       0.548000
     36 H6           2.0540     5.8730    -0.3370 h4         1 1N6       0.203000
     37 H7           3.4850     3.7570    -0.0470 ha         1 1N6       0.216000
     38 H9           2.0590    -1.8430     0.6210 hn         1 1N6       0.501000
     39 H10          4.5720    -0.2630     0.9090 h1         1 1N6       0.085700
     40 H11          4.2930    -2.3820     2.1640 hc         1 1N6       0.049200
     41 H12          4.0120    -3.2760     0.6720 hc         1 1N6       0.049200
     42 H13          6.6090    -1.8240     1.4650 hc         1 1N6       0.046950
     43 H14          6.3680    -3.5680     1.3930 hc         1 1N6       0.046950
     44 H15          5.9970    -3.4760    -1.0660 h1         1 1N6       0.059700
     45 H16          8.1790    -2.7170    -1.7040 hn         1 1N6       0.391500
     46 H17          8.3930    -1.9510    -0.3020 hn         1 1N6       0.391500
     47 H19          6.5360    -0.4460    -0.8520 hc         1 1N6       0.046950
     48 H20          6.2480    -1.3480    -2.3380 hc         1 1N6       0.046950
     49 H21          3.9360    -1.9050    -1.6260 hc         1 1N6       0.049200
     50 H22          4.1790    -0.1630    -1.5670 hc         1 1N6       0.049200
     51 H23         -0.2740     5.5950    -0.3370 hn         1 1N6       0.333500
@<TRIPOS>BOND
     1     1     2 1   
     2     2     3 1   
     3     2     4 1   
     4     2     5 1   
     5     5     6 ar  
     6     5     7 ar  
     7     6    10 ar  
     8     6    31 1   
     9     7     8 ar  
    10     7    32 1   
    11     8     9 ar  
    12     8    33 1   
    13     9    10 ar  
    14     9    34 1   
    15    10    11 1   
    16    11    12 1   
    17    11    35 1   
    18    12    13 ar  
    19    12    14 ar  
    20    13    22 ar  
    21    14    15 1   
    22    14    20 ar  
    23    15    16 2   
    24    15    17 1   
    25    17    18 1   
    26    17    51 1   
    27    18    19 2   
    28    18    36 1   
    29    19    20 1   
    30    19    37 1   
    31    20    21 ar  
    32    21    22 ar  
    33    22    23 1   
    34    23    24 1   
    35    23    38 1   
    36    24    25 1   
    37    24    30 1   
    38    24    39 1   
    39    25    26 1   
    40    25    40 1   
    41    25    41 1   
    42    26    27 1   
    43    26    42 1   
    44    26    43 1   
    45    27    28 1   
    46    27    29 1   
    47    27    44 1   
    48    28    45 1   
    49    28    46 1   
    50    29    30 1   
    51    29    47 1   
    52    29    48 1   
    53    30    49 1   
    54    30    50 1   
@<TRIPOS>SUBSTRUCTURE
     1 1N6         1 TEMP              0 ****  ****    0 ROOT
