@<TRIPOS>MOLECULE
1N6
   51    54     1     0     0
SMALL
abcg2


@<TRIPOS>ATOM
      1 FAC         -6.9320    -1.7070     0.3820 f          1 1N6      -0.114333
      2 CBD         -6.1270    -0.7190    -0.0200 c3         1 1N6       0.355300
      3 FAD         -6.3730    -0.5230    -1.3250 f          1 1N6      -0.114333
      4 FAE         -6.5260     0.3930     0.6130 f          1 1N6      -0.114333
      5 CAV         -4.6810    -1.0170     0.2270 ca         1 1N6      -0.169300
      6 CAK         -3.7700     0.0240     0.1390 ca         1 1N6      -0.118000
      7 CAI         -4.2530    -2.3120     0.4900 ca         1 1N6      -0.091000
      8 CAF         -2.8970    -2.5350     0.6720 ca         1 1N6      -0.097000
      9 CAH         -1.9720    -1.5060     0.5920 ca         1 1N6      -0.106000
     10 CAU         -2.4040    -0.2050     0.3190 ca         1 1N6       0.311000
     11 NAR         -1.5860     0.9140     0.2160 nu         1 1N6      -0.934900
     12 C6          -0.2410     1.0330     0.2140 ca         1 1N6       0.478900
     13 N1           0.5190    -0.0290     0.3630 nb         1 1N6      -0.350000
     14 C5           0.3340     2.3340     0.0410 ca         1 1N6      -0.397600
     15 CAY         -0.4530     3.5280    -0.1250 c          1 1N6       0.599600
     16 OAB         -1.6890     3.5750    -0.1430 o          1 1N6      -0.603000
     17 NAT          0.2700     4.6840    -0.2710 ns         1 1N6      -0.373100
     18 CAG          1.6260     4.7470    -0.2740 cc         1 1N6      -0.019400
     19 CAJ          2.3850     3.6430    -0.1290 cd         1 1N6      -0.388800
     20 C4           1.7410     2.3780     0.0340 ca         1 1N6       0.293800
     21 N3           2.4990     1.2890     0.1720 nb         1 1N6      -0.295000
     22 C2           1.8540     0.1390     0.3350 ca         1 1N6       0.453900
     23 NAS          2.5730    -0.9780     0.5040 nu         1 1N6      -0.909100
     24 CBC          4.0110    -1.0740     0.3640 c6         1 1N6       0.240500
     25 CAN          4.5280    -2.2340     1.2080 c6         1 1N6      -0.088900
     26 CAL          6.0370    -2.3960     1.0660 c6         1 1N6      -0.087900
     27 CBB          6.4620    -2.5700    -0.3890 c6         1 1N6       0.151500
     28 NAA          7.9040    -2.7630    -0.4610 n8         1 1N6      -0.987200
     29 CAM          5.9380    -1.4020    -1.2260 c6         1 1N6      -0.087900
     30 CAO          4.4270    -1.2440    -1.0980 c6         1 1N6      -0.088900
     31 H1          -4.1100     1.0300    -0.0740 ha         1 1N6       0.134000
     32 H2          -4.9490    -3.1360     0.5570 ha         1 1N6       0.131000
     33 H3          -2.5470    -3.5370     0.8830 ha         1 1N6       0.118000
     34 H4          -0.9250    -1.7120     0.7390 ha         1 1N6       0.151000
     35 H5          -2.0600     1.8060     0.0750 hn         1 1N6       0.548000
     36 H6           2.0460     5.7340    -0.4000 h4         1 1N6       0.203000
     37 H7           3.4630     3.7060    -0.1340 ha         1 1N6       0.216000
     38 H9           2.0460    -1.8360     0.5540 hn         1 1N6       0.501000
     39 H10          4.4430    -0.1440     0.7440 h1         1 1N6       0.085700
     40 H11          4.2620    -2.0770     2.2560 hc         1 1N6       0.049200
     41 H12          4.0330    -3.1590     0.8890 hc         1 1N6       0.049200
     42 H13          6.5410    -1.5130     1.4790 hc         1 1N6       0.046950
     43 H14          6.3760    -3.2530     1.6520 hc         1 1N6       0.046950
     44 H15          5.9950    -3.4890    -0.7660 h1         1 1N6       0.059700
     45 H16          8.1750    -2.9100    -1.4260 hn         1 1N6       0.391500
     46 H17          8.3680    -1.9060    -0.1800 hn         1 1N6       0.391500
     47 H19          6.4330    -0.4800    -0.8950 hc         1 1N6       0.046950
     48 H20          6.2100    -1.5440    -2.2760 hc         1 1N6       0.046950
     49 H21          3.9250    -2.1290    -1.5050 hc         1 1N6       0.049200
     50 H22          4.0790    -0.3860    -1.6790 hc         1 1N6       0.049200
     51 H23         -0.2560     5.5380    -0.3910 hn         1 1N6       0.333500
@<TRIPOS>BOND
     1     1     2 1   
     2     2     3 1   
     3     2     4 1   
     4     2     5 1   
     5     5     6 ar  
     6     5     7 ar  
     7     6    10 ar  
     8     6    31 1   
     9     7     8 ar  
    10     7    32 1   
    11     8     9 ar  
    12     8    33 1   
    13     9    10 ar  
    14     9    34 1   
    15    10    11 1   
    16    11    12 1   
    17    11    35 1   
    18    12    13 ar  
    19    12    14 ar  
    20    13    22 ar  
    21    14    15 1   
    22    14    20 ar  
    23    15    16 2   
    24    15    17 1   
    25    17    18 1   
    26    17    51 1   
    27    18    19 2   
    28    18    36 1   
    29    19    20 1   
    30    19    37 1   
    31    20    21 ar  
    32    21    22 ar  
    33    22    23 1   
    34    23    24 1   
    35    23    38 1   
    36    24    25 1   
    37    24    30 1   
    38    24    39 1   
    39    25    26 1   
    40    25    40 1   
    41    25    41 1   
    42    26    27 1   
    43    26    42 1   
    44    26    43 1   
    45    27    28 1   
    46    27    29 1   
    47    27    44 1   
    48    28    45 1   
    49    28    46 1   
    50    29    30 1   
    51    29    47 1   
    52    29    48 1   
    53    30    49 1   
    54    30    50 1   
@<TRIPOS>SUBSTRUCTURE
     1 1N6         1 TEMP              0 ****  ****    0 ROOT
