@<TRIPOS>MOLECULE
1N7
  101   104     1     0     0
SMALL
No Charge or Current Charge


@<TRIPOS>ATOM
      1 C1           9.7210    -1.0360     0.1540 c6         1 1N7      -0.066400
      2 C2           8.7140    -0.0280     0.8190 c6         1 1N7      -0.033000
      3 C3           6.6600    -1.6690     0.5040 c6         1 1N7      -0.109400
      4 C4           5.1830    -1.8440     0.0260 c6         1 1N7       0.185300
      5 C5           4.2190    -0.8000     0.7140 c5         1 1N7      -0.031000
      6 C6           4.7790     0.6390     0.4310 c5         1 1N7      -0.059700
      7 C7           3.6810     1.5500     1.0360 c5         1 1N7      -0.069400
      8 C8           2.3600     0.8130     0.6540 c5         1 1N7      -0.077400
      9 C9           2.7850    -0.5870     0.0620 c5         1 1N7      -0.051700
     10 C10          4.1050    -1.1850     2.2370 c3         1 1N7      -0.085100
     11 C11          8.8210    -0.2800     2.3680 c3         1 1N7      -0.087100
     12 C12          9.9360    -0.8080    -1.3610 c6         1 1N7      -0.111400
     13 C13         10.4560     0.6230    -1.6150 c6         1 1N7       0.174300
     14 C14          9.4670     1.6590    -1.0390 c6         1 1N7      -0.076400
     15 C15          9.2010     1.4360     0.4890 c6         1 1N7      -0.041700
     16 C16          8.2320     2.5140     1.0750 c6         1 1N7      -0.105400
     17 C17          6.7430     2.3310     0.6700 c6         1 1N7       0.178300
     18 C18          6.2470     0.8660     0.9220 c6         1 1N7      -0.032700
     19 C19          7.2190    -0.2130     0.2990 c6         1 1N7      -0.040700
     20 C20          1.6750    -1.6900     0.2440 c3         1 1N7      -0.047700
     21 C21          2.1100    -3.1060    -0.2190 c3         1 1N7      -0.088100
     22 C22          0.3360    -1.2710    -0.4450 c3         1 1N7      -0.069400
     23 C23         -0.8850    -2.1860    -0.1550 c3         1 1N7      -0.155400
     24 C24         -2.1910    -1.5440    -0.6380 c          1 1N7       0.596100
     25 N1          -3.0100    -1.0680     0.3610 ns         1 1N7      -0.510900
     26 O1          -2.4940    -1.4820    -1.8200 o          1 1N7      -0.597100
     27 O2          10.6320     0.8370    -3.0180 oh         1 1N7      -0.658000
     28 O3           6.5300     2.7600    -0.6820 oh         1 1N7      -0.656000
     29 O4           5.1390    -1.7720    -1.4090 oh         1 1N7      -0.657000
     30 H1          10.6990    -0.9440     0.6460 hc         1 1N7       0.038700
     31 H2           9.4200    -2.0760     0.3330 hc         1 1N7       0.038700
     32 H3           6.7340    -1.9680     1.5550 hc         1 1N7       0.040700
     33 H4           7.2740    -2.3910    -0.0490 hc         1 1N7       0.040700
     34 H5           4.8870    -2.8540     0.3330 h1         1 1N7       0.026700
     35 H6           4.8270     0.8100    -0.6520 hc         1 1N7       0.084700
     36 H7           3.7860     1.6500     2.1220 hc         1 1N7       0.041700
     37 H8           3.7170     2.5640     0.6210 hc         1 1N7       0.041700
     38 H9           1.7170     0.7080     1.5350 hc         1 1N7       0.037200
     39 H10          1.7870     1.3920    -0.0800 hc         1 1N7       0.037200
     40 H11          2.8910    -0.4720    -1.0240 hc         1 1N7       0.073700
     41 H12          5.0540    -1.0780     2.7710 hc         1 1N7       0.032367
     42 H13          3.3730    -0.5760     2.7780 hc         1 1N7       0.032367
     43 H14          3.7880    -2.2280     2.3550 hc         1 1N7       0.032367
     44 H15          9.8360    -0.0730     2.7300 hc         1 1N7       0.032367
     45 H16          8.1490     0.3450     2.9630 hc         1 1N7       0.032367
     46 H17          8.6080    -1.3230     2.6280 hc         1 1N7       0.032367
     47 H18         10.6630    -1.5410    -1.7380 hc         1 1N7       0.046200
     48 H19          9.0030    -0.9850    -1.9130 hc         1 1N7       0.046200
     49 H20         11.4220     0.7410    -1.1010 h1         1 1N7       0.023700
     50 H21          9.8690     2.6680    -1.1980 hc         1 1N7       0.060700
     51 H22          8.5400     1.6050    -1.6200 hc         1 1N7       0.060700
     52 H23         10.1700     1.5840     0.9870 hc         1 1N7       0.040700
     53 H24          8.2990     2.5000     2.1700 hc         1 1N7       0.043200
     54 H25          8.5750     3.5180     0.7880 hc         1 1N7       0.043200
     55 H26          6.1540     2.9880     1.3280 h1         1 1N7       0.026700
     56 H27          6.2280     0.7310     2.0090 hc         1 1N7       0.044700
     57 H28          7.2130    -0.0400    -0.7840 hc         1 1N7       0.072700
     58 H29          1.4580    -1.7700     1.3170 hc         1 1N7       0.036700
     59 H30          2.9080    -3.4980     0.4160 hc         1 1N7       0.033700
     60 H31          1.2920    -3.8280    -0.1370 hc         1 1N7       0.033700
     61 H32          2.4500    -3.0950    -1.2600 hc         1 1N7       0.033700
     62 H33          0.0620    -0.2620    -0.1180 hc         1 1N7       0.059200
     63 H34          0.4880    -1.2090    -1.5310 hc         1 1N7       0.059200
     64 H35         -0.7590    -3.1350    -0.6870 hc         1 1N7       0.054700
     65 H36         -0.9370    -2.3660     0.9260 hc         1 1N7       0.054700
     66 H41         -2.6740    -1.1680     1.3120 hn         1 1N7       0.317500
     67 H43         11.2860     0.1720    -3.3230 ho         1 1N7       0.440000
     68 H44          6.8030     3.7010    -0.7220 ho         1 1N7       0.440000
     69 H45          4.2330    -2.0350    -1.6760 ho         1 1N7       0.440000
     70 C25         -4.3220    -0.4520     0.1430 c3         1 1N7       0.106000
     71 C26         -5.4170    -1.5080    -0.1000 c3         1 1N7      -0.130400
     72 C27         -6.8060    -0.8700    -0.3170 c3         1 1N7       0.097600
     73 N2          -7.9960    -1.8190    -0.5550 n4         1 1N7      -0.491000
     74 C28         -9.2810    -0.9980    -0.8110 c3         1 1N7       0.059600
     75 C29         -7.7360    -2.6850    -1.7950 c3         1 1N7       0.075400
     76 C30         -8.1970    -2.7420     0.6570 c3         1 1N7       0.075400
     77 C31         -9.8040    -0.0260     0.2810 c3         1 1N7       0.210300
     78 C32        -10.8510     0.9330    -0.2950 c3         1 1N7      -0.403400
     79 O5         -10.4360    -0.7660     1.3250 oh         1 1N7      -0.663000
     80 S1         -11.2520     2.2740     0.8280 s6         1 1N7       1.312600
     81 O7          -9.9890     3.0120     0.9490 o          1 1N7      -0.669200
     82 O8         -12.3260     2.9960     0.1350 o          1 1N7      -0.669200
     83 O6         -11.6680     1.5600     2.0440 o          1 1N7      -0.669200
     84 H37         -4.5790     0.1470     1.0270 h1         1 1N7       0.072200
     85 H38         -4.2620     0.2270    -0.7190 h1         1 1N7       0.072200
     86 H39         -5.1480    -2.1080    -0.9770 hc         1 1N7       0.059700
     87 H40         -5.4540    -2.1860     0.7600 hc         1 1N7       0.059700
     88 H42         -7.0410    -0.2630     0.5600 hx         1 1N7       0.107200
     89 H46         -6.7470    -0.1980    -1.1780 hx         1 1N7       0.107200
     90 H47         -9.0930    -0.4080    -1.7100 hx         1 1N7       0.085200
     91 H48        -10.0810    -1.7030    -1.0450 hx         1 1N7       0.085200
     92 H49         -6.8530    -3.3040    -1.6260 hx         1 1N7       0.089700
     93 H50         -8.6020    -3.3250    -1.9740 hx         1 1N7       0.089700
     94 H51         -7.5730    -2.0380    -2.6590 hx         1 1N7       0.089700
     95 H52         -8.3480    -2.1330     1.5510 hx         1 1N7       0.089700
     96 H53         -9.0760    -3.3670     0.4880 hx         1 1N7       0.089700
     97 H54         -7.3150    -3.3720     0.7840 hx         1 1N7       0.089700
     98 H55         -8.9550     0.5580     0.6670 h1         1 1N7       0.096700
     99 H56        -10.4760     1.4120    -1.2050 h1         1 1N7       0.083200
    100 H57        -11.7860     0.4100    -0.5180 h1         1 1N7       0.083200
    101 H58        -10.9800    -0.1010     1.8190 ho         1 1N7       0.483000
@<TRIPOS>BOND
     1     1     2 1   
     2     1    12 1   
     3     1    30 1   
     4     1    31 1   
     5     2    11 1   
     6     2    15 1   
     7     2    19 1   
     8     3     4 1   
     9     3    19 1   
    10     3    32 1   
    11     3    33 1   
    12     4     5 1   
    13     4    29 1   
    14     4    34 1   
    15     5     6 1   
    16     5     9 1   
    17     5    10 1   
    18     6     7 1   
    19     6    18 1   
    20     6    35 1   
    21     7     8 1   
    22     7    36 1   
    23     7    37 1   
    24     8     9 1   
    25     8    38 1   
    26     8    39 1   
    27     9    20 1   
    28     9    40 1   
    29    10    41 1   
    30    10    42 1   
    31    10    43 1   
    32    11    44 1   
    33    11    45 1   
    34    11    46 1   
    35    12    13 1   
    36    12    47 1   
    37    12    48 1   
    38    13    14 1   
    39    13    27 1   
    40    13    49 1   
    41    14    15 1   
    42    14    50 1   
    43    14    51 1   
    44    15    16 1   
    45    15    52 1   
    46    16    17 1   
    47    16    53 1   
    48    16    54 1   
    49    17    18 1   
    50    17    28 1   
    51    17    55 1   
    52    18    19 1   
    53    18    56 1   
    54    19    57 1   
    55    20    21 1   
    56    20    22 1   
    57    20    58 1   
    58    21    59 1   
    59    21    60 1   
    60    21    61 1   
    61    22    23 1   
    62    22    62 1   
    63    22    63 1   
    64    23    24 1   
    65    23    64 1   
    66    23    65 1   
    67    24    25 1   
    68    24    26 2   
    69    25    66 1   
    70    25    70 1   
    71    27    67 1   
    72    28    68 1   
    73    29    69 1   
    74    70    71 1   
    75    70    84 1   
    76    70    85 1   
    77    71    72 1   
    78    71    86 1   
    79    71    87 1   
    80    72    73 1   
    81    72    88 1   
    82    72    89 1   
    83    73    74 1   
    84    73    75 1   
    85    73    76 1   
    86    74    77 1   
    87    74    90 1   
    88    74    91 1   
    89    75    92 1   
    90    75    93 1   
    91    75    94 1   
    92    76    95 1   
    93    76    96 1   
    94    76    97 1   
    95    77    78 1   
    96    77    79 1   
    97    77    98 1   
    98    78    80 1   
    99    78    99 1   
   100    78   100 1   
   101    79   101 1   
   102    80    81 1   
   103    80    82 1   
   104    80    83 1   
@<TRIPOS>SUBSTRUCTURE
     1 1N7         1 TEMP              0 ****  ****    0 ROOT
