@<TRIPOS>MOLECULE
1N7
  101   104     1     0     0
SMALL
abcg2


@<TRIPOS>ATOM
      1 C1           9.4260    -1.2940    -0.5580 c6         1 1N7      -0.066400
      2 C2           8.6360    -0.4850     0.4860 c6         1 1N7      -0.033000
      3 C3           6.4240    -1.6390    -0.1390 c6         1 1N7      -0.109400
      4 C4           4.9420    -1.5140    -0.5070 c6         1 1N7       0.185300
      5 C5           4.1980    -0.6710     0.5370 c5         1 1N7      -0.031000
      6 C6           4.9210     0.6830     0.6640 c5         1 1N7      -0.059700
      7 C7           3.9820     1.5170     1.5260 c5         1 1N7      -0.069400
      8 C8           2.5760     1.0480     1.1020 c5         1 1N7      -0.077400
      9 C9           2.7640    -0.1910     0.1850 c5         1 1N7      -0.051700
     10 C10          4.1630    -1.4400     1.8630 c3         1 1N7      -0.085100
     11 C11          8.7740    -1.2420     1.8130 c3         1 1N7      -0.087100
     12 C12          9.5960    -0.5960    -1.9000 c6         1 1N7      -0.111400
     13 C13         10.3090     0.7330    -1.7000 c6         1 1N7       0.174300
     14 C14          9.5200     1.5990    -0.7380 c6         1 1N7      -0.076400
     15 C15          9.2910     0.9110     0.6140 c6         1 1N7      -0.041700
     16 C16          8.5220     1.8080     1.5850 c6         1 1N7      -0.105400
     17 C17          7.0290     1.9390     1.2940 c6         1 1N7       0.178300
     18 C18          6.3790     0.5710     1.0910 c6         1 1N7      -0.032700
     19 C19          7.1480    -0.3070     0.0830 c6         1 1N7      -0.040700
     20 C20          1.6060    -1.1880     0.3210 c3         1 1N7      -0.047700
     21 C21          1.8040    -2.4710    -0.4830 c3         1 1N7      -0.088100
     22 C22          0.2770    -0.5310    -0.0900 c3         1 1N7      -0.069400
     23 C23         -0.9280    -1.2010     0.5650 c3         1 1N7      -0.155400
     24 C24         -2.2510    -0.7110     0.0210 c          1 1N7       0.596100
     25 N1          -3.1730    -0.3910     0.9470 ns         1 1N7      -0.510900
     26 O1          -2.4680    -0.6270    -1.1810 o          1 1N7      -0.597100
     27 O2          10.4680     1.4550    -2.9070 oh         1 1N7      -0.658000
     28 O3           6.7640     2.7420     0.1570 oh         1 1N7      -0.656000
     29 O4           4.7760    -0.9220    -1.7810 oh         1 1N7      -0.657000
     30 H1          10.4220    -1.4910    -0.1430 hc         1 1N7       0.038700
     31 H2           8.9770    -2.2800    -0.7000 hc         1 1N7       0.038700
     32 H3           6.5030    -2.2700     0.7490 hc         1 1N7       0.040700
     33 H4           6.9170    -2.2070    -0.9350 hc         1 1N7       0.040700
     34 H5           4.5340    -2.5330    -0.5190 h1         1 1N7       0.026700
     35 H6           4.9070     1.1270    -0.3370 hc         1 1N7       0.084700
     36 H7           4.1530     1.3330     2.5910 hc         1 1N7       0.041700
     37 H8           4.1260     2.5870     1.3690 hc         1 1N7       0.041700
     38 H9           1.9710     0.7850     1.9740 hc         1 1N7       0.037200
     39 H10          2.0370     1.8400     0.5830 hc         1 1N7       0.037200
     40 H11          2.7790     0.1550    -0.8550 hc         1 1N7       0.073700
     41 H12          5.1530    -1.6270     2.2770 hc         1 1N7       0.032367
     42 H13          3.5940    -0.9100     2.6280 hc         1 1N7       0.032367
     43 H14          3.6900    -2.4160     1.7350 hc         1 1N7       0.032367
     44 H15          9.8220    -1.2740     2.1160 hc         1 1N7       0.032367
     45 H16          8.2160    -0.7960     2.6350 hc         1 1N7       0.032367
     46 H17          8.4370    -2.2760     1.7160 hc         1 1N7       0.032367
     47 H18         10.1730    -1.2370    -2.5750 hc         1 1N7       0.046200
     48 H19          8.6260    -0.4250    -2.3790 hc         1 1N7       0.046200
     49 H20         11.2940     0.5200    -1.2540 h1         1 1N7       0.023700
     50 H21         10.0530     2.5390    -0.5600 hc         1 1N7       0.060700
     51 H22          8.5710     1.8690    -1.2050 hc         1 1N7       0.060700
     52 H23         10.2870     0.7510     1.0500 hc         1 1N7       0.040700
     53 H24          8.6330     1.4240     2.6030 hc         1 1N7       0.043200
     54 H25          8.9790     2.8040     1.6090 hc         1 1N7       0.043200
     55 H26          6.5610     2.4010     2.1780 h1         1 1N7       0.026700
     56 H27          6.4070     0.0890     2.0740 hc         1 1N7       0.044700
     57 H28          7.1300     0.2220    -0.8760 hc         1 1N7       0.072700
     58 H29          1.5240    -1.4580     1.3820 hc         1 1N7       0.036700
     59 H30          2.5700    -3.1160    -0.0550 hc         1 1N7       0.033700
     60 H31          0.8860    -3.0600    -0.5190 hc         1 1N7       0.033700
     61 H32          2.0920    -2.2490    -1.5130 hc         1 1N7       0.033700
     62 H33          0.2650     0.5270     0.1790 hc         1 1N7       0.059200
     63 H34          0.1810    -0.5700    -1.1790 hc         1 1N7       0.059200
     64 H35         -0.9030    -2.2820     0.3920 hc         1 1N7       0.054700
     65 H36         -0.8760    -1.0650     1.6480 hc         1 1N7       0.054700
     66 H41         -2.9510    -0.5320     1.9190 hn         1 1N7       0.317500
     67 H43         10.9890     0.9170    -3.5110 ho         1 1N7       0.440000
     68 H44          7.2550     3.5640     0.2520 ho         1 1N7       0.440000
     69 H45          5.3430    -1.3910    -2.4010 ho         1 1N7       0.440000
     70 C25         -4.5320    -0.0400     0.6170 c3         1 1N7       0.106000
     71 C26         -5.4220    -1.2750     0.4650 c3         1 1N7      -0.130400
     72 C27         -6.8060    -0.8480     0.0100 c3         1 1N7       0.097600
     73 N2          -7.8370    -1.9430     0.0070 n4         1 1N7      -0.491000
     74 C28         -9.0710    -1.4880    -0.7370 c3         1 1N7       0.059600
     75 C29         -7.3220    -3.1370    -0.7240 c3         1 1N7       0.075400
     76 C30         -8.1690    -2.3590     1.4010 c3         1 1N7       0.075400
     77 C31         -9.6480    -0.1170    -0.3820 c3         1 1N7       0.210300
     78 C32        -10.8130     0.1150    -1.3390 c3         1 1N7      -0.403400
     79 O5          -9.9980     0.0100     0.9690 oh         1 1N7      -0.663000
     80 S1         -11.7030     1.6610    -1.0400 s6         1 1N7       1.312600
     81 O7         -10.6640     2.7020    -0.9360 o          1 1N7      -0.669200
     82 O8         -12.5700     1.8180    -2.2220 o          1 1N7      -0.669200
     83 O6         -12.4650     1.4570     0.2070 o          1 1N7      -0.669200
     84 H37         -4.9190     0.6030     1.4080 h1         1 1N7       0.072200
     85 H38         -4.5350     0.5460    -0.3020 h1         1 1N7       0.072200
     86 H39         -4.9660    -1.9460    -0.2630 hc         1 1N7       0.059700
     87 H40         -5.4590    -1.7980     1.4230 hc         1 1N7       0.059700
     88 H42         -7.1880    -0.0580     0.6560 hx         1 1N7       0.107200
     89 H46         -6.7600    -0.4590    -1.0090 hx         1 1N7       0.107200
     90 H47         -8.7940    -1.4800    -1.7920 hx         1 1N7       0.085200
     91 H48         -9.8170    -2.2720    -0.5940 hx         1 1N7       0.085200
     92 H49         -6.5030    -3.5850    -0.1690 hx         1 1N7       0.089700
     93 H50         -8.1250    -3.8630    -0.8210 hx         1 1N7       0.089700
     94 H51         -6.9780    -2.8360    -1.7110 hx         1 1N7       0.089700
     95 H52         -8.4920    -1.4990     1.9750 hx         1 1N7       0.089700
     96 H53         -8.9640    -3.0980     1.3650 hx         1 1N7       0.089700
     97 H54         -7.2910    -2.8020     1.8590 hx         1 1N7       0.089700
     98 H55         -8.8990     0.6520    -0.5820 h1         1 1N7       0.096700
     99 H56        -10.4400     0.1530    -2.3640 h1         1 1N7       0.083200
    100 H57        -11.5460    -0.6950    -1.2840 h1         1 1N7       0.083200
    101 H58        -10.8940    -0.3160     1.1080 ho         1 1N7       0.483000
@<TRIPOS>BOND
     1     1     2 1   
     2     1    12 1   
     3     1    30 1   
     4     1    31 1   
     5     2    11 1   
     6     2    15 1   
     7     2    19 1   
     8     3     4 1   
     9     3    19 1   
    10     3    32 1   
    11     3    33 1   
    12     4     5 1   
    13     4    29 1   
    14     4    34 1   
    15     5     6 1   
    16     5     9 1   
    17     5    10 1   
    18     6     7 1   
    19     6    18 1   
    20     6    35 1   
    21     7     8 1   
    22     7    36 1   
    23     7    37 1   
    24     8     9 1   
    25     8    38 1   
    26     8    39 1   
    27     9    20 1   
    28     9    40 1   
    29    10    41 1   
    30    10    42 1   
    31    10    43 1   
    32    11    44 1   
    33    11    45 1   
    34    11    46 1   
    35    12    13 1   
    36    12    47 1   
    37    12    48 1   
    38    13    14 1   
    39    13    27 1   
    40    13    49 1   
    41    14    15 1   
    42    14    50 1   
    43    14    51 1   
    44    15    16 1   
    45    15    52 1   
    46    16    17 1   
    47    16    53 1   
    48    16    54 1   
    49    17    18 1   
    50    17    28 1   
    51    17    55 1   
    52    18    19 1   
    53    18    56 1   
    54    19    57 1   
    55    20    21 1   
    56    20    22 1   
    57    20    58 1   
    58    21    59 1   
    59    21    60 1   
    60    21    61 1   
    61    22    23 1   
    62    22    62 1   
    63    22    63 1   
    64    23    24 1   
    65    23    64 1   
    66    23    65 1   
    67    24    25 1   
    68    24    26 2   
    69    25    66 1   
    70    25    70 1   
    71    27    67 1   
    72    28    68 1   
    73    29    69 1   
    74    70    71 1   
    75    70    84 1   
    76    70    85 1   
    77    71    72 1   
    78    71    86 1   
    79    71    87 1   
    80    72    73 1   
    81    72    88 1   
    82    72    89 1   
    83    73    74 1   
    84    73    75 1   
    85    73    76 1   
    86    74    77 1   
    87    74    90 1   
    88    74    91 1   
    89    75    92 1   
    90    75    93 1   
    91    75    94 1   
    92    76    95 1   
    93    76    96 1   
    94    76    97 1   
    95    77    78 1   
    96    77    79 1   
    97    77    98 1   
    98    78    80 1   
    99    78    99 1   
   100    78   100 1   
   101    79   101 1   
   102    80    81 1   
   103    80    82 1   
   104    80    83 1   
@<TRIPOS>SUBSTRUCTURE
     1 1N7         1 TEMP              0 ****  ****    0 ROOT
