@<TRIPOS>MOLECULE
1N8
   72    75     1     0     0
SMALL
abcg2


@<TRIPOS>ATOM
      1 C22          0.1510    -2.1500    -2.0530 ca         1 1N8      -0.121000
      2 C23          0.9270    -2.7160    -3.0500 ca         1 1N8      -0.046000
      3 C11          1.3990    -4.0160    -2.9090 ca         1 1N8      -0.161600
      4 C14          2.2730    -4.5950    -3.9680 c          1 1N8       0.620700
      5 N3           2.2230    -5.9520    -4.0710 ns         1 1N8      -0.174000
      6 C15          3.0780    -6.7410    -4.8590 ca         1 1N8      -0.084000
      7 C20          3.7050    -7.8400    -4.2520 ca         1 1N8      -0.019000
      8 C19          4.5100    -8.6750    -5.0170 ca         1 1N8      -0.113000
      9 C18          4.7130    -8.4090    -6.3610 ca         1 1N8      -0.049000
     10 C17          4.1090    -7.3080    -6.9520 ca         1 1N8      -0.205300
     11 C16          3.2900    -6.4750    -6.2010 ca         1 1N8      -0.038000
     12 C21          4.3360    -6.9800    -8.3930 c3         1 1N8       0.360300
     13 F1           4.9460    -7.9670    -9.0540 f          1 1N8      -0.113000
     14 F2           3.1860    -6.7290    -9.0350 f          1 1N8      -0.113000
     15 F3           5.0960    -5.8830    -8.5370 f          1 1N8      -0.113000
     16 O1           2.9870    -3.9030    -4.6680 o          1 1N8      -0.566100
     17 C12          1.1050    -4.7090    -1.7380 ca         1 1N8      -0.079000
     18 C13          0.3530    -4.1360    -0.7210 cp         1 1N8      -0.046000
     19 C24         -0.1470    -2.8360    -0.8770 ca         1 1N8      -0.031300
     20 C25         -0.9980    -2.1970     0.1790 c3         1 1N8      -0.053800
     21 N4           3.5040    -8.0340    -2.8820 ns         1 1N8      -0.176000
     22 C26          3.2950    -9.2230    -2.2490 c          1 1N8       0.599100
     23 C27          3.0750    -9.0750    -0.7510 c3         1 1N8       0.087800
     24 N6           2.0350    -9.9580    -0.2860 n3         1 1N8      -0.697600
     25 C28          0.7400    -9.5340    -0.8010 c3         1 1N8       0.165800
     26 C29          2.0250   -10.0930     1.1640 c3         1 1N8       0.165800
     27 C30         -0.3580   -10.5730    -0.6470 c3         1 1N8      -0.093600
     28 C5           3.3040   -10.6810     1.7390 c3         1 1N8      -0.093600
     29 N1          -1.5840    -8.8150     2.7410 nb         1 1N8      -0.229000
     30 C2          -1.5100    -8.0640     1.6870 ca         1 1N8       0.175900
     31 C3          -0.7590    -6.8650     1.6410 ca         1 1N8      -0.212000
     32 C4          -0.0970    -6.5190     2.8370 ca         1 1N8       0.089000
     33 N5          -0.1730    -7.2960     3.9360 nb         1 1N8      -0.260000
     34 C6          -0.8930    -8.3950     3.8450 ca         1 1N8       0.386900
     35 C7          -0.6350    -6.0690     0.4880 ca         1 1N8      -0.043000
     36 C8           0.1280    -4.9280     0.5120 cp         1 1N8      -0.075000
     37 C9           0.7670    -4.5640     1.7210 ca         1 1N8      -0.063000
     38 C10          0.6650    -5.3290     2.8520 ca         1 1N8      -0.115000
     39 C1          -0.3290    -8.9330     6.1630 c3         1 1N8       0.229100
     40 O2           3.2910   -10.2930    -2.8190 o          1 1N8      -0.542100
     41 H22         -0.2330    -1.1470    -2.1910 ha         1 1N8       0.121000
     42 H23          1.1530    -2.1490    -3.9430 ha         1 1N8       0.137000
     43 HN3          1.5030    -6.4410    -3.5600 hn         1 1N8       0.159000
     44 H19          5.0080    -9.5190    -4.5650 ha         1 1N8       0.144000
     45 H18          5.3550    -9.0680    -6.9280 ha         1 1N8       0.136000
     46 H16          2.7880    -5.6320    -6.6560 ha         1 1N8       0.147000
     47 H12          1.5020    -5.7020    -1.5650 ha         1 1N8       0.106000
     48 H251        -1.8600    -2.8190     0.4240 hc         1 1N8       0.050033
     49 H252        -0.4470    -2.0420     1.1070 hc         1 1N8       0.050033
     50 H253        -1.3660    -1.2270    -0.1510 hc         1 1N8       0.050033
     51 HN4          3.4570    -7.1990    -2.3180 hn         1 1N8       0.156000
     52 H271         2.8880    -8.0190    -0.4880 h1         1 1N8       0.050200
     53 H272         4.0260    -9.3360    -0.2810 h1         1 1N8       0.050200
     54 H281         0.4250    -8.5850    -0.3360 h1         1 1N8       0.030700
     55 H282         0.8430    -9.3220    -1.8680 h1         1 1N8       0.030700
     56 H291         1.8020    -9.1310     1.6600 h1         1 1N8       0.030700
     57 H292         1.2070   -10.7640     1.4260 h1         1 1N8       0.030700
     58 H301        -0.0480   -11.5260    -1.0770 hc         1 1N8       0.041200
     59 H302        -0.6430   -10.7430     0.3910 hc         1 1N8       0.041200
     60 H303        -1.2520   -10.2400    -1.1740 hc         1 1N8       0.041200
     61 H51          3.5830   -11.5920     1.2090 hc         1 1N8       0.041200
     62 H52          4.1480    -9.9930     1.7020 hc         1 1N8       0.041200
     63 H53          3.1480   -10.9370     2.7870 hc         1 1N8       0.041200
     64 H2          -2.0570    -8.3910     0.8060 h4         1 1N8       0.024100
     65 H7          -1.1450    -6.3710    -0.4210 ha         1 1N8       0.117000
     66 H9           1.3760    -3.6680     1.7420 ha         1 1N8       0.120000
     67 H10          1.1780    -5.0440     3.7620 ha         1 1N8       0.135000
     68 HN2         -1.5450   -10.0290     4.8150 hn         1 1N8       0.512000
     69 H11         -0.6660    -7.9940     6.6050 h1         1 1N8       0.043033
     70 H12A         0.7560    -8.8810     6.0520 h1         1 1N8       0.043033
     71 H13         -0.5650    -9.7400     6.8520 h1         1 1N8       0.043033
     72 N2          -0.9830    -9.2010     4.9100 nu         1 1N8      -0.920100
@<TRIPOS>BOND
     1     1     2 ar  
     2     1    19 ar  
     3     1    41 1   
     4     2     3 ar  
     5     2    42 1   
     6     3     4 1   
     7     3    17 ar  
     8     4     5 1   
     9     4    16 2   
    10     5     6 1   
    11     5    43 1   
    12     6     7 ar  
    13     6    11 ar  
    14     7     8 ar  
    15     7    21 1   
    16     8     9 ar  
    17     8    44 1   
    18     9    10 ar  
    19     9    45 1   
    20    10    11 ar  
    21    10    12 1   
    22    11    46 1   
    23    12    13 1   
    24    12    14 1   
    25    12    15 1   
    26    17    18 ar  
    27    17    47 1   
    28    18    19 ar  
    29    18    36 1   
    30    19    20 1   
    31    20    48 1   
    32    20    49 1   
    33    20    50 1   
    34    21    22 1   
    35    21    51 1   
    36    22    23 1   
    37    22    40 2   
    38    23    24 1   
    39    23    52 1   
    40    23    53 1   
    41    24    25 1   
    42    24    26 1   
    43    25    27 1   
    44    25    54 1   
    45    25    55 1   
    46    26    28 1   
    47    26    56 1   
    48    26    57 1   
    49    27    58 1   
    50    27    59 1   
    51    27    60 1   
    52    28    61 1   
    53    28    62 1   
    54    28    63 1   
    55    29    30 ar  
    56    29    34 ar  
    57    30    31 ar  
    58    30    64 1   
    59    31    32 ar  
    60    31    35 ar  
    61    32    33 ar  
    62    32    38 ar  
    63    33    34 ar  
    64    34    72 1   
    65    35    36 ar  
    66    35    65 1   
    67    36    37 ar  
    68    37    38 ar  
    69    37    66 1   
    70    38    67 1   
    71    39    69 1   
    72    39    70 1   
    73    39    71 1   
    74    39    72 1   
    75    68    72 1   
@<TRIPOS>SUBSTRUCTURE
     1 1N8         1 TEMP              0 ****  ****    0 ROOT
