@<TRIPOS>MOLECULE
1N8
   72    75     1     0     0
SMALL
No Charge or Current Charge


@<TRIPOS>ATOM
      1 C22          0.2480    -2.0560    -1.8640 ca         1 1N8      -0.121000
      2 C23          0.8800    -2.6240    -2.9830 ca         1 1N8      -0.046000
      3 C11          1.2910    -3.9740    -2.9710 ca         1 1N8      -0.161600
      4 C14          2.0060    -4.5530    -4.1790 c          1 1N8       0.620700
      5 N3           2.4180    -5.8750    -4.0460 ns         1 1N8      -0.174000
      6 C15          3.1310    -6.7640    -4.9070 ca         1 1N8      -0.084000
      7 C20          3.6900    -7.9410    -4.3480 ca         1 1N8      -0.019000
      8 C19          4.4020    -8.8270    -5.1850 ca         1 1N8      -0.113000
      9 C18          4.5470    -8.5620    -6.5550 ca         1 1N8      -0.049000
     10 C17          3.9760    -7.4060    -7.1230 ca         1 1N8      -0.205300
     11 C16          3.2750    -6.5110    -6.2900 ca         1 1N8      -0.038000
     12 C21          4.1220    -7.1000    -8.6180 c3         1 1N8       0.360300
     13 F1           4.4850    -8.1830    -9.3440 f          1 1N8      -0.113000
     14 F2           2.9660    -6.6470    -9.1550 f          1 1N8      -0.113000
     15 F3           5.0580    -6.1490    -8.8350 f          1 1N8      -0.113000
     16 O1           2.2210    -3.8790    -5.1800 o          1 1N8      -0.566100
     17 C12          1.0400    -4.7380    -1.8060 ca         1 1N8      -0.079000
     18 C13          0.4150    -4.1790    -0.6680 cp         1 1N8      -0.046000
     19 C24          0.0130    -2.8180    -0.7040 ca         1 1N8      -0.031300
     20 C25         -0.6850    -2.1570     0.4800 c3         1 1N8      -0.053800
     21 N4           3.5240    -8.1740    -2.9500 ns         1 1N8      -0.176000
     22 C26          3.8150    -9.2580    -2.1280 c          1 1N8       0.599100
     23 C27          3.3930    -9.0400    -0.6440 c3         1 1N8       0.087800
     24 N6           2.1630    -9.7540    -0.1440 n3         1 1N8      -0.697600
     25 C28          0.9720    -9.5210    -1.0080 c3         1 1N8       0.165800
     26 C29          1.8850    -9.4890     1.2960 c3         1 1N8       0.165800
     27 C30         -0.1830   -10.5190    -0.7930 c3         1 1N8      -0.093600
     28 C5           2.9990    -9.9260     2.2670 c3         1 1N8      -0.093600
     29 N1          -1.7550    -8.9470     2.6190 nb         1 1N8      -0.229000
     30 C2          -1.6140    -8.1360     1.5540 ca         1 1N8       0.175900
     31 C3          -0.7820    -7.0030     1.5970 ca         1 1N8      -0.212000
     32 C4          -0.1020    -6.7270     2.8030 ca         1 1N8       0.089000
     33 N5          -0.2480    -7.5450     3.8660 nb         1 1N8      -0.260000
     34 C6          -1.0610    -8.6100     3.7180 ca         1 1N8       0.386900
     35 C7          -0.6220    -6.1740     0.4730 ca         1 1N8      -0.043000
     36 C8           0.2140    -5.0360     0.5340 cp         1 1N8      -0.075000
     37 C9           0.8860    -4.7590     1.7470 ca         1 1N8      -0.063000
     38 C10          0.7290    -5.5950     2.8670 ca         1 1N8      -0.115000
     39 C1          -0.5500    -9.3590     6.1190 c3         1 1N8       0.229100
     40 O2           4.3350   -10.3000    -2.5160 o          1 1N8      -0.542100
     41 H22         -0.0570    -1.0130    -1.9010 ha         1 1N8       0.121000
     42 H23          1.0550    -2.0030    -3.8600 ha         1 1N8       0.137000
     43 HN3          2.1660    -6.2860    -3.1600 hn         1 1N8       0.159000
     44 H19          4.8630    -9.7270    -4.7930 ha         1 1N8       0.144000
     45 H18          5.1080    -9.2640    -7.1690 ha         1 1N8       0.136000
     46 H16          2.8350    -5.6250    -6.7380 ha         1 1N8       0.147000
     47 H12          1.3380    -5.7810    -1.7450 ha         1 1N8       0.106000
     48 H251        -1.4250    -2.8280     0.9330 hc         1 1N8       0.050033
     49 H252         0.0380    -1.8800     1.2560 hc         1 1N8       0.050033
     50 H253        -1.2150    -1.2460     0.1810 hc         1 1N8       0.050033
     51 HN4          3.1050    -7.3990    -2.4570 hn         1 1N8       0.156000
     52 H271         3.2730    -7.9590    -0.4920 h1         1 1N8       0.050200
     53 H272         4.2670    -9.3390    -0.0520 h1         1 1N8       0.050200
     54 H281         0.5940    -8.5000    -0.8600 h1         1 1N8       0.030700
     55 H282         1.2540    -9.6050    -2.0660 h1         1 1N8       0.030700
     56 H291         1.6960    -8.4180     1.4460 h1         1 1N8       0.030700
     57 H292         0.9780   -10.0190     1.6080 h1         1 1N8       0.030700
     58 H301         0.1710   -11.5480    -0.9240 hc         1 1N8       0.041200
     59 H302        -0.6230   -10.4290     0.2050 hc         1 1N8       0.041200
     60 H303        -0.9770   -10.3360    -1.5250 hc         1 1N8       0.041200
     61 H51          3.2680   -10.9750     2.0990 hc         1 1N8       0.041200
     62 H52          3.8960    -9.3070     2.1540 hc         1 1N8       0.041200
     63 H53          2.6520    -9.8230     3.3020 hc         1 1N8       0.041200
     64 H2          -2.1690    -8.4040     0.6560 h4         1 1N8       0.024100
     65 H7          -1.1440    -6.4050    -0.4540 ha         1 1N8       0.117000
     66 H9           1.5450    -3.8960     1.8120 ha         1 1N8       0.120000
     67 H10          1.2620    -5.3670     3.7870 ha         1 1N8       0.135000
     68 HN2         -1.8370   -10.2560     4.6510 hn         1 1N8       0.512000
     69 H11         -0.8110    -8.4100     6.6070 h1         1 1N8       0.043033
     70 H12A         0.5420    -9.4040     6.0080 h1         1 1N8       0.043033
     71 H13         -0.8660   -10.1820     6.7740 h1         1 1N8       0.043033
     72 N2          -1.2100    -9.4620     4.8030 nu         1 1N8      -0.920100
@<TRIPOS>BOND
     1     1     2 ar  
     2     1    19 ar  
     3     1    41 1   
     4     2     3 ar  
     5     2    42 1   
     6     3     4 1   
     7     3    17 ar  
     8     4     5 1   
     9     4    16 2   
    10     5     6 1   
    11     5    43 1   
    12     6     7 ar  
    13     6    11 ar  
    14     7     8 ar  
    15     7    21 1   
    16     8     9 ar  
    17     8    44 1   
    18     9    10 ar  
    19     9    45 1   
    20    10    11 ar  
    21    10    12 1   
    22    11    46 1   
    23    12    13 1   
    24    12    14 1   
    25    12    15 1   
    26    17    18 ar  
    27    17    47 1   
    28    18    19 ar  
    29    18    36 1   
    30    19    20 1   
    31    20    48 1   
    32    20    49 1   
    33    20    50 1   
    34    21    22 1   
    35    21    51 1   
    36    22    23 1   
    37    22    40 2   
    38    23    24 1   
    39    23    52 1   
    40    23    53 1   
    41    24    25 1   
    42    24    26 1   
    43    25    27 1   
    44    25    54 1   
    45    25    55 1   
    46    26    28 1   
    47    26    56 1   
    48    26    57 1   
    49    27    58 1   
    50    27    59 1   
    51    27    60 1   
    52    28    61 1   
    53    28    62 1   
    54    28    63 1   
    55    29    30 ar  
    56    29    34 ar  
    57    30    31 ar  
    58    30    64 1   
    59    31    32 ar  
    60    31    35 ar  
    61    32    33 ar  
    62    32    38 ar  
    63    33    34 ar  
    64    34    72 1   
    65    35    36 ar  
    66    35    65 1   
    67    36    37 ar  
    68    37    38 ar  
    69    37    66 1   
    70    38    67 1   
    71    39    69 1   
    72    39    70 1   
    73    39    71 1   
    74    39    72 1   
    75    68    72 1   
@<TRIPOS>SUBSTRUCTURE
     1 1N8         1 TEMP              0 ****  ****    0 ROOT
