@<TRIPOS>MOLECULE
1N9
   96   100     1     0     0
SMALL
abcg2


@<TRIPOS>ATOM
      1 C13         -1.6110    -3.8660   -10.2200 ca         1 1N9       0.411900
      2 N1          -0.3180    -3.6250   -10.3820 nb         1 1N9      -0.258000
      3 C19          0.3440    -4.3820   -11.2370 ca         1 1N9       0.310900
      4 C20         -0.2850    -5.3740   -11.9820 ca         1 1N9      -0.293000
      5 C5          -1.6410    -5.5190   -11.7480 ca         1 1N9       0.159900
      6 N3          -2.3190    -4.7900   -10.8780 nb         1 1N9      -0.257000
      7 N4          -2.3270    -3.1280    -9.3290 nu         1 1N9      -0.924900
      8 C9          -1.9450    -2.1110    -8.4590 ca         1 1N9       0.333000
      9 N6           1.7040    -4.1070   -11.4080 n          1 1N9      -0.213900
     10 C10          2.3040    -4.3650   -12.6710 ca         1 1N9      -0.122000
     11 C11          3.1600    -5.4670   -12.8160 ca         1 1N9       0.185100
     12 C12          2.4730    -3.6830   -10.3440 c          1 1N9       0.663100
     13 C14          2.0310    -3.5630   -13.7590 ca         1 1N9      -0.024000
     14 C15          2.5850    -3.8210   -15.0070 ca         1 1N9      -0.235000
     15 C16          3.4430    -4.9070   -15.1460 ca         1 1N9       0.189100
     16 C17          3.7320    -5.7280   -14.0510 ca         1 1N9      -0.240000
     17 C18         -2.9500    -1.5770    -7.6480 ca         1 1N9      -0.167000
     18 C21         -2.6620    -0.5800    -6.7310 ca         1 1N9       0.121100
     19 C22         -1.3700    -0.0610    -6.6190 ca         1 1N9       0.028100
     20 C23         -0.3750    -0.5860    -7.4450 ca         1 1N9       0.121100
     21 C24         -0.6520    -1.6000    -8.3540 ca         1 1N9      -0.167000
     22 O1           3.6330    -3.1730   -10.7850 os         1 1N9      -0.350200
     23 C25          4.4220    -2.5320    -9.8410 ca         1 1N9       0.107100
     24 C26          5.4250    -3.2500    -9.2010 ca         1 1N9      -0.058800
     25 C27          6.2190    -2.5600    -8.2880 ca         1 1N9      -0.109000
     26 C28          6.0040    -1.2150    -8.0300 ca         1 1N9      -0.102000
     27 C29          4.9950    -0.5310    -8.6930 ca         1 1N9      -0.109000
     28 C30          4.1820    -1.1810    -9.6150 ca         1 1N9      -0.058800
     29 C31          3.0870    -0.4550   -10.3390 c3         1 1N9      -0.047800
     30 C32          5.6480    -4.7050    -9.4850 c3         1 1N9      -0.047800
     31 O6           0.9140    -0.1670    -7.3510 os         1 1N9      -0.355100
     32 C33          1.1840     1.1620    -7.7710 c3         1 1N9       0.153400
     33 O2           2.1710    -3.7530    -9.1860 o          1 1N9      -0.458000
     34 O3           4.0460    -5.2500   -16.2950 os         1 1N9      -0.340100
     35 O4           3.3630    -6.1980   -11.7140 os         1 1N9      -0.329100
     36 C36          4.2630    -7.2890   -11.7760 c3         1 1N9       0.144900
     37 C37          3.7980    -4.4730   -17.4510 c3         1 1N9       0.147900
     38 O5          -1.1140     0.9290    -5.7270 os         1 1N9      -0.368100
     39 C7          -0.3790     0.5240    -4.5700 c3         1 1N9       0.160600
     40 C8           0.1760     1.7570    -3.8870 c3         1 1N9      -0.079400
     41 C35          1.1570     1.3870    -2.7790 c3         1 1N9       0.176800
     42 O7          -3.6470    -0.1330    -5.9090 os         1 1N9      -0.355100
     43 C34         -4.2300     1.1040    -6.2960 c3         1 1N9       0.153400
     44 C1           4.1640     0.1980    -4.6850 c6         1 1N9       0.161800
     45 N2           4.8870    -0.4430    -3.6050 n3         1 1N9      -0.719600
     46 C3           3.9640    -1.0870    -2.6930 c6         1 1N9       0.161800
     47 C4           2.9590    -0.0880    -2.1520 c6         1 1N9       0.171800
     48 N5           2.2330     0.5320    -3.2400 n3         1 1N9      -0.733600
     49 C6           3.1530     1.1910    -4.1440 c6         1 1N9       0.171800
     50 H20          0.2330    -5.9990   -12.6930 ha         1 1N9       0.145000
     51 H5          -2.2040    -6.2740   -12.2860 h4         1 1N9       0.023100
     52 HN4         -3.3010    -3.3880    -9.2920 hn         1 1N9       0.513000
     53 H14          1.3670    -2.7160   -13.6370 ha         1 1N9       0.127000
     54 H15          2.3440    -3.1690   -15.8340 ha         1 1N9       0.125000
     55 H17          4.4020    -6.5650   -14.1980 ha         1 1N9       0.136000
     56 H18         -3.9630    -1.9580    -7.7050 ha         1 1N9       0.148500
     57 H24          0.1530    -1.9970    -8.9500 ha         1 1N9       0.148500
     58 H27          7.0110    -3.0880    -7.7720 ha         1 1N9       0.112500
     59 H28          6.6260    -0.6950    -7.3140 ha         1 1N9       0.114000
     60 H29          4.8310     0.5200    -8.4910 ha         1 1N9       0.112500
     61 H311         3.1380    -0.6060   -11.4180 hc         1 1N9       0.047700
     62 H312         2.1010    -0.7840   -10.0080 hc         1 1N9       0.047700
     63 H313         3.1470     0.6150   -10.1490 hc         1 1N9       0.047700
     64 H321         4.7880    -5.3090    -9.1910 hc         1 1N9       0.047700
     65 H322         5.8250    -4.8880   -10.5450 hc         1 1N9       0.047700
     66 H323         6.5110    -5.0730    -8.9340 hc         1 1N9       0.047700
     67 H331         0.7080     1.9070    -7.1320 h1         1 1N9       0.036200
     68 H332         0.8640     1.3250    -8.8030 h1         1 1N9       0.036200
     69 H333         2.2630     1.2920    -7.7180 h1         1 1N9       0.036200
     70 H361         5.2650    -6.9700   -12.0730 h1         1 1N9       0.046033
     71 H362         3.9160    -8.0610   -12.4660 h1         1 1N9       0.046033
     72 H363         4.3090    -7.7060   -10.7730 h1         1 1N9       0.046033
     73 H371         4.3900    -4.9130   -18.2500 h1         1 1N9       0.043700
     74 H372         4.1060    -3.4330   -17.3170 h1         1 1N9       0.043700
     75 H373         2.7440    -4.4970   -17.7400 h1         1 1N9       0.043700
     76 H71          0.4430    -0.1380    -4.8490 h1         1 1N9       0.053700
     77 H72         -1.0360    -0.0300    -3.8890 h1         1 1N9       0.053700
     78 H81         -0.6290     2.3520    -3.4500 hc         1 1N9       0.047200
     79 H82          0.6600     2.3970    -4.6290 hc         1 1N9       0.047200
     80 H351         1.5320     2.3120    -2.3090 h1         1 1N9       0.031200
     81 H352         0.6170     0.8440    -1.9980 h1         1 1N9       0.031200
     82 H341        -4.6730     1.0390    -7.2940 h1         1 1N9       0.036200
     83 H342        -3.5060     1.9200    -6.2840 h1         1 1N9       0.036200
     84 H343        -5.0180     1.3240    -5.5780 h1         1 1N9       0.036200
     85 H11          3.6390    -0.5350    -5.3220 h1         1 1N9       0.040450
     86 H12          4.8750     0.7230    -5.3290 h1         1 1N9       0.040450
     87 H31          4.5260    -1.5180    -1.8600 h1         1 1N9       0.040450
     88 H32          3.4190    -1.9150    -3.1800 h1         1 1N9       0.040450
     89 H41          2.2520    -0.6090    -1.5030 h1         1 1N9       0.034700
     90 H42          3.4850     0.6550    -1.5280 h1         1 1N9       0.034700
     91 H61          3.6820     2.0240    -3.6490 h1         1 1N9       0.034700
     92 H62          2.6070     1.6150    -4.9880 h1         1 1N9       0.034700
     93 H21          6.5970    -0.8360    -4.7360 h1         1 1N9       0.029033
     94 H22          5.4570    -2.1870    -4.6970 h1         1 1N9       0.029033
     95 H23          6.4350    -1.8030    -3.2690 h1         1 1N9       0.029033
     96 C2           5.8830    -1.3630    -4.1010 c3         1 1N9       0.154100
@<TRIPOS>BOND
     1     1     2 ar  
     2     1     6 ar  
     3     1     7 1   
     4     2     3 ar  
     5     3     4 ar  
     6     3     9 1   
     7     4     5 ar  
     8     4    50 1   
     9     5     6 ar  
    10     5    51 1   
    11     7     8 1   
    12     7    52 1   
    13     8    17 ar  
    14     8    21 ar  
    15     9    10 1   
    16     9    12 1   
    17    10    11 ar  
    18    10    13 ar  
    19    11    16 ar  
    20    11    35 1   
    21    12    22 1   
    22    12    33 2   
    23    13    14 ar  
    24    13    53 1   
    25    14    15 ar  
    26    14    54 1   
    27    15    16 ar  
    28    15    34 1   
    29    16    55 1   
    30    17    18 ar  
    31    17    56 1   
    32    18    19 ar  
    33    18    42 1   
    34    19    20 ar  
    35    19    38 1   
    36    20    21 ar  
    37    20    31 1   
    38    21    57 1   
    39    22    23 1   
    40    23    24 ar  
    41    23    28 ar  
    42    24    25 ar  
    43    24    30 1   
    44    25    26 ar  
    45    25    58 1   
    46    26    27 ar  
    47    26    59 1   
    48    27    28 ar  
    49    27    60 1   
    50    28    29 1   
    51    29    61 1   
    52    29    62 1   
    53    29    63 1   
    54    30    64 1   
    55    30    65 1   
    56    30    66 1   
    57    31    32 1   
    58    32    67 1   
    59    32    68 1   
    60    32    69 1   
    61    34    37 1   
    62    35    36 1   
    63    36    70 1   
    64    36    71 1   
    65    36    72 1   
    66    37    73 1   
    67    37    74 1   
    68    37    75 1   
    69    38    39 1   
    70    39    40 1   
    71    39    76 1   
    72    39    77 1   
    73    40    41 1   
    74    40    78 1   
    75    40    79 1   
    76    41    48 1   
    77    41    80 1   
    78    41    81 1   
    79    42    43 1   
    80    43    82 1   
    81    43    83 1   
    82    43    84 1   
    83    44    45 1   
    84    44    49 1   
    85    44    85 1   
    86    44    86 1   
    87    45    46 1   
    88    45    96 1   
    89    46    47 1   
    90    46    87 1   
    91    46    88 1   
    92    47    48 1   
    93    47    89 1   
    94    47    90 1   
    95    48    49 1   
    96    49    91 1   
    97    49    92 1   
    98    93    96 1   
    99    94    96 1   
   100    95    96 1   
@<TRIPOS>SUBSTRUCTURE
     1 1N9         1 TEMP              0 ****  ****    0 ROOT
