@<TRIPOS>MOLECULE
1N9
   96   100     1     0     0
SMALL
No Charge or Current Charge


@<TRIPOS>ATOM
      1 C13         -1.8410    -3.7790   -10.5930 ca         1 1N9       0.411900
      2 N1          -0.5000    -3.7180   -10.5320 nb         1 1N9      -0.258000
      3 C19          0.1910    -4.5950   -11.2860 ca         1 1N9       0.310900
      4 C20         -0.4870    -5.4910   -12.1360 ca         1 1N9      -0.293000
      5 C5          -1.8900    -5.4780   -12.1190 ca         1 1N9       0.159900
      6 N3          -2.5740    -4.6240   -11.3350 nb         1 1N9      -0.257000
      7 N4          -2.5650    -2.9280    -9.7730 nu         1 1N9      -0.924900
      8 C9          -2.1960    -1.8730    -8.9390 ca         1 1N9       0.333000
      9 N6           1.6280    -4.4930   -11.2970 n          1 1N9      -0.213900
     10 C10          2.2660    -4.6090   -12.5970 ca         1 1N9      -0.122000
     11 C11          3.4090    -5.4250   -12.7880 ca         1 1N9       0.185100
     12 C12          2.3370    -4.1350   -10.1200 c          1 1N9       0.663100
     13 C14          1.7230    -3.9180   -13.7010 ca         1 1N9      -0.024000
     14 C15          2.3250    -4.0030   -14.9650 ca         1 1N9      -0.235000
     15 C16          3.4760    -4.7930   -15.1460 ca         1 1N9       0.189100
     16 C17          4.0070    -5.5040   -14.0630 ca         1 1N9      -0.240000
     17 C18         -2.8510    -1.7060    -7.7160 ca         1 1N9      -0.167000
     18 C21         -2.4880    -0.6700    -6.8440 ca         1 1N9       0.121100
     19 C22         -1.4270     0.2140    -7.1880 ca         1 1N9       0.028100
     20 C23         -0.8000     0.0760    -8.4640 ca         1 1N9       0.121100
     21 C24         -1.1970    -0.9660    -9.3150 ca         1 1N9      -0.167000
     22 O1           3.5880    -3.6430   -10.3870 os         1 1N9      -0.350200
     23 C25          4.3240    -2.9540    -9.4510 ca         1 1N9       0.107100
     24 C26          5.3690    -3.6020    -8.7550 ca         1 1N9      -0.058800
     25 C27          6.1220    -2.8780    -7.8110 ca         1 1N9      -0.109000
     26 C28          5.8390    -1.5250    -7.5640 ca         1 1N9      -0.102000
     27 C29          4.7980    -0.8850    -8.2550 ca         1 1N9      -0.109000
     28 C30          4.0360    -1.5910    -9.2050 ca         1 1N9      -0.058800
     29 C31          2.9180    -0.8790    -9.9600 c3         1 1N9      -0.047800
     30 C32          5.6940    -5.0660    -9.0180 c3         1 1N9      -0.047800
     31 O6           0.2120     0.8900    -8.9570 os         1 1N9      -0.355100
     32 C33          0.7800     2.0090    -8.2540 c3         1 1N9       0.153400
     33 O2           1.8770    -4.2140    -8.9870 o          1 1N9      -0.458000
     34 O3           4.1090    -4.9140   -16.3650 os         1 1N9      -0.340100
     35 O4           3.8640    -6.1900   -11.7290 os         1 1N9      -0.329100
     36 C36          4.9320    -7.1430   -11.8670 c3         1 1N9       0.144900
     37 C37          3.6440    -4.2310   -17.5430 c3         1 1N9       0.147900
     38 O5          -0.9700     1.1350    -6.2700 os         1 1N9      -0.368100
     39 C7          -0.2570     0.6580    -5.1150 c3         1 1N9       0.160600
     40 C8           0.2690     1.8810    -4.3410 c3         1 1N9      -0.079400
     41 C35          1.1280     1.4940    -3.1180 c3         1 1N9       0.176800
     42 O7          -3.1980    -0.5790    -5.6620 os         1 1N9      -0.355100
     43 C34         -3.7520     0.6750    -5.2170 c3         1 1N9       0.153400
     44 C1           4.4350     0.1480    -4.6620 c6         1 1N9       0.161800
     45 N2           5.1030    -0.3600    -3.4260 n3         1 1N9      -0.719600
     46 C3           4.0830    -0.9310    -2.4940 c6         1 1N9       0.161800
     47 C4           2.9330     0.0800    -2.1790 c6         1 1N9       0.171800
     48 N5           2.2600     0.5820    -3.4160 n3         1 1N9      -0.733600
     49 C6           3.2830     1.1570    -4.3490 c6         1 1N9       0.171800
     50 H20          0.0520    -6.1840   -12.7750 ha         1 1N9       0.145000
     51 H5          -2.4730    -6.1580   -12.7380 h4         1 1N9       0.023100
     52 HN4         -3.5340    -3.2270    -9.6640 hn         1 1N9       0.513000
     53 H14          0.8420    -3.2900   -13.5760 ha         1 1N9       0.127000
     54 H15          1.8860    -3.4470   -15.7880 ha         1 1N9       0.125000
     55 H17          4.8810    -6.1210   -14.2390 ha         1 1N9       0.136000
     56 H18         -3.6430    -2.3900    -7.4280 ha         1 1N9       0.148500
     57 H24         -0.7150    -1.0670   -10.2810 ha         1 1N9       0.148500
     58 H27          6.9330    -3.3610    -7.2700 ha         1 1N9       0.112500
     59 H28          6.4300    -0.9720    -6.8390 ha         1 1N9       0.114000
     60 H29          4.5890     0.1640    -8.0560 ha         1 1N9       0.112500
     61 H311         2.9900    -1.0600   -11.0390 hc         1 1N9       0.047700
     62 H312         1.9360    -1.2320    -9.6250 hc         1 1N9       0.047700
     63 H313         2.9510     0.2060    -9.8070 hc         1 1N9       0.047700
     64 H321         4.7920    -5.6870    -8.9750 hc         1 1N9       0.047700
     65 H322         6.1450    -5.1900   -10.0100 hc         1 1N9       0.047700
     66 H323         6.4010    -5.4660    -8.2820 hc         1 1N9       0.047700
     67 H331         1.2900     1.6790    -7.3410 h1         1 1N9       0.036200
     68 H332         0.0080     2.7440    -7.9940 h1         1 1N9       0.036200
     69 H333         1.5220     2.5110    -8.8870 h1         1 1N9       0.036200
     70 H361         5.8630    -6.6460   -12.1710 h1         1 1N9       0.046033
     71 H362         4.6790    -7.9070   -12.6130 h1         1 1N9       0.046033
     72 H363         5.1150    -7.6490   -10.9110 h1         1 1N9       0.046033
     73 H371         4.2910    -4.4640   -18.3980 h1         1 1N9       0.043700
     74 H372         3.6570    -3.1440   -17.3940 h1         1 1N9       0.043700
     75 H373         2.6220    -4.5410   -17.7960 h1         1 1N9       0.043700
     76 H71          0.5870     0.0300    -5.4300 h1         1 1N9       0.053700
     77 H72         -0.9050     0.0570    -4.4650 h1         1 1N9       0.053700
     78 H81         -0.5830     2.4800    -3.9970 hc         1 1N9       0.047200
     79 H82          0.8500     2.5220    -5.0140 hc         1 1N9       0.047200
     80 H351         1.5030     2.4140    -2.6480 h1         1 1N9       0.031200
     81 H352         0.4630     1.0130    -2.3880 h1         1 1N9       0.031200
     82 H341        -4.3470     1.1390    -6.0150 h1         1 1N9       0.036200
     83 H342        -2.9750     1.3800    -4.9060 h1         1 1N9       0.036200
     84 H343        -4.4100     0.5100    -4.3550 h1         1 1N9       0.036200
     85 H11          4.0140    -0.6910    -5.2370 h1         1 1N9       0.040450
     86 H12          5.1680     0.6470    -5.3130 h1         1 1N9       0.040450
     87 H31          4.5560    -1.2290    -1.5470 h1         1 1N9       0.040450
     88 H32          3.6380    -1.8380    -2.9300 h1         1 1N9       0.040450
     89 H41          2.2020    -0.4160    -1.5240 h1         1 1N9       0.034700
     90 H42          3.3530     0.9230    -1.6100 h1         1 1N9       0.034700
     91 H61          3.7210     2.0670    -3.9140 h1         1 1N9       0.034700
     92 H62          2.8210     1.4460    -5.3030 h1         1 1N9       0.034700
     93 H21          6.9610    -0.8290    -4.3530 h1         1 1N9       0.029033
     94 H22          5.8260    -2.1950    -4.2390 h1         1 1N9       0.029033
     95 H23          6.6920    -1.6280    -2.7900 h1         1 1N9       0.029033
     96 C2           6.2020    -1.3040    -3.7180 c3         1 1N9       0.154100
@<TRIPOS>BOND
     1     1     2 ar  
     2     1     6 ar  
     3     1     7 1   
     4     2     3 ar  
     5     3     4 ar  
     6     3     9 1   
     7     4     5 ar  
     8     4    50 1   
     9     5     6 ar  
    10     5    51 1   
    11     7     8 1   
    12     7    52 1   
    13     8    17 ar  
    14     8    21 ar  
    15     9    10 1   
    16     9    12 1   
    17    10    11 ar  
    18    10    13 ar  
    19    11    16 ar  
    20    11    35 1   
    21    12    22 1   
    22    12    33 2   
    23    13    14 ar  
    24    13    53 1   
    25    14    15 ar  
    26    14    54 1   
    27    15    16 ar  
    28    15    34 1   
    29    16    55 1   
    30    17    18 ar  
    31    17    56 1   
    32    18    19 ar  
    33    18    42 1   
    34    19    20 ar  
    35    19    38 1   
    36    20    21 ar  
    37    20    31 1   
    38    21    57 1   
    39    22    23 1   
    40    23    24 ar  
    41    23    28 ar  
    42    24    25 ar  
    43    24    30 1   
    44    25    26 ar  
    45    25    58 1   
    46    26    27 ar  
    47    26    59 1   
    48    27    28 ar  
    49    27    60 1   
    50    28    29 1   
    51    29    61 1   
    52    29    62 1   
    53    29    63 1   
    54    30    64 1   
    55    30    65 1   
    56    30    66 1   
    57    31    32 1   
    58    32    67 1   
    59    32    68 1   
    60    32    69 1   
    61    34    37 1   
    62    35    36 1   
    63    36    70 1   
    64    36    71 1   
    65    36    72 1   
    66    37    73 1   
    67    37    74 1   
    68    37    75 1   
    69    38    39 1   
    70    39    40 1   
    71    39    76 1   
    72    39    77 1   
    73    40    41 1   
    74    40    78 1   
    75    40    79 1   
    76    41    48 1   
    77    41    80 1   
    78    41    81 1   
    79    42    43 1   
    80    43    82 1   
    81    43    83 1   
    82    43    84 1   
    83    44    45 1   
    84    44    49 1   
    85    44    85 1   
    86    44    86 1   
    87    45    46 1   
    88    45    96 1   
    89    46    47 1   
    90    46    87 1   
    91    46    88 1   
    92    47    48 1   
    93    47    89 1   
    94    47    90 1   
    95    48    49 1   
    96    49    91 1   
    97    49    92 1   
    98    93    96 1   
    99    94    96 1   
   100    95    96 1   
@<TRIPOS>SUBSTRUCTURE
     1 1N9         1 TEMP              0 ****  ****    0 ROOT
