@<TRIPOS>MOLECULE
1NB
   28    28     1     0     0
SMALL
No Charge or Current Charge


@<TRIPOS>ATOM
      1 C7          -0.0940     0.0330    -0.7570 c3         1 1NB      -0.174700
      2 C8           0.3260    -0.2590     0.7210 c5         1 1NB      -0.060700
      3 C9           1.7730     0.2010     1.0700 c5         1 1NB      -0.077400
      4 O4          -1.8170     0.1230     1.9260 oh         1 1NB      -0.660000
      5 C26          1.8300     0.1390     2.6260 c5         1 1NB      -0.075400
      6 C29         -0.4530     0.5210     1.8230 c5         1 1NB       0.163300
      7 C27          0.7440    -0.7660    -1.7910 c3         1 1NB      -0.037200
      8 C28          0.3410     0.0950     3.0840 c5         1 1NB      -0.113400
      9 C19          1.1200     0.3570    -4.0330 c2         1 1NB      -0.309000
     10 C30         -1.5940    -0.2310    -0.9800 c          1 1NB       0.597900
     11 H7           0.0660     1.0990    -0.9610 hc         1 1NB       0.073700
     12 H8           0.2210    -1.3410     0.8760 hc         1 1NB       0.064700
     13 H91          1.9600     1.2230     0.7160 hc         1 1NB       0.046700
     14 H92          2.5380    -0.4380     0.6140 hc         1 1NB       0.046700
     15 H17         -0.5280    -0.8920    -3.5930 ha         1 1NB       0.173000
     16 HO4         -2.1940     0.6020     2.6970 ho         1 1NB       0.450000
     17 H261         2.3550     1.0110     3.0340 hc         1 1NB       0.044700
     18 H262         2.3730    -0.7480     2.9750 hc         1 1NB       0.044700
     19 H29         -0.3810     1.6060     1.6600 h1         1 1NB       0.035700
     20 H271         1.8090    -0.5600    -1.6260 hc         1 1NB       0.048200
     21 H272         0.6130    -1.8420    -1.6190 hc         1 1NB       0.048200
     22 H281         0.1510     0.7580     3.9360 hc         1 1NB       0.051200
     23 H282         0.0670    -0.9190     3.4010 hc         1 1NB       0.051200
     24 H191         0.8160     0.5570    -5.0620 ha         1 1NB       0.162000
     25 H192         2.0450     0.8290    -3.6970 ha         1 1NB       0.162000
     26 H30         -1.9340    -1.2700    -0.7740 h4         1 1NB      -0.012800
     27 C17          0.3900    -0.4270    -3.2250 c2         1 1NB      -0.223200
     28 O5          -2.3830     0.6280    -1.3660 o          1 1NB      -0.522100
@<TRIPOS>BOND
     1     1     2 1   
     2     1     7 1   
     3     1    10 1   
     4     1    11 1   
     5     2     3 1   
     6     2     6 1   
     7     2    12 1   
     8     3     5 1   
     9     3    13 1   
    10     3    14 1   
    11     4     6 1   
    12     4    16 1   
    13     5     8 1   
    14     5    17 1   
    15     5    18 1   
    16     6     8 1   
    17     6    19 1   
    18     7    20 1   
    19     7    21 1   
    20     7    27 1   
    21     8    22 1   
    22     8    23 1   
    23     9    24 1   
    24     9    25 1   
    25     9    27 2   
    26    10    26 1   
    27    10    28 2   
    28    15    27 1   
@<TRIPOS>SUBSTRUCTURE
     1 1NB         1 TEMP              0 ****  ****    0 ROOT
