@<TRIPOS>MOLECULE
1NB
   28    28     1     0     0
SMALL
abcg2


@<TRIPOS>ATOM
      1 C7          -0.1170     0.0900    -0.6920 c3         1 1NB      -0.174700
      2 C8           0.3260    -0.2900     0.7210 c5         1 1NB      -0.060700
      3 C9           1.7800     0.0580     1.0500 c5         1 1NB      -0.077400
      4 O4          -1.7790    -0.0080     1.8550 oh         1 1NB      -0.660000
      5 C26          1.8370     0.1730     2.5910 c5         1 1NB      -0.075400
      6 C29         -0.4430     0.4350     1.8190 c5         1 1NB       0.163300
      7 C27          0.7150    -0.6620    -1.7530 c3         1 1NB      -0.037200
      8 C28          0.3760     0.1430     3.0740 c5         1 1NB      -0.113400
      9 C19          1.1440     0.3590    -3.9940 c2         1 1NB      -0.309000
     10 C30         -1.5650    -0.2610    -0.9020 c          1 1NB       0.597900
     11 H7           0.0090     1.1680    -0.8380 hc         1 1NB       0.073700
     12 H8           0.1760    -1.3700     0.8610 hc         1 1NB       0.064700
     13 H91          2.0390     1.0150     0.5880 hc         1 1NB       0.046700
     14 H92          2.4820    -0.6790     0.6610 hc         1 1NB       0.046700
     15 H17         -0.6210    -0.6320    -3.5170 ha         1 1NB       0.173000
     16 HO4         -2.2990     0.6180     2.3670 ho         1 1NB       0.450000
     17 H261         2.3350     1.0960     2.8880 hc         1 1NB       0.044700
     18 H262         2.4090    -0.6440     3.0320 hc         1 1NB       0.044700
     19 H29         -0.4000     1.5150     1.6060 h1         1 1NB       0.035700
     20 H271         1.7700    -0.4410    -1.5820 hc         1 1NB       0.048200
     21 H272         0.5910    -1.7400    -1.5980 hc         1 1NB       0.048200
     22 H281         0.1790     0.8500     3.8820 hc         1 1NB       0.051200
     23 H282         0.1110    -0.8520     3.4390 hc         1 1NB       0.051200
     24 H191         0.8370     0.5900    -5.0060 ha         1 1NB       0.162000
     25 H192         2.1280     0.7010    -3.6950 ha         1 1NB       0.162000
     26 H30         -1.8060    -1.3170    -0.6740 h4         1 1NB      -0.012800
     27 C17          0.3540    -0.3100    -3.1630 c2         1 1NB      -0.223200
     28 O5          -2.4050     0.4830    -1.3450 o          1 1NB      -0.522100
@<TRIPOS>BOND
     1     1     2 1   
     2     1     7 1   
     3     1    10 1   
     4     1    11 1   
     5     2     3 1   
     6     2     6 1   
     7     2    12 1   
     8     3     5 1   
     9     3    13 1   
    10     3    14 1   
    11     4     6 1   
    12     4    16 1   
    13     5     8 1   
    14     5    17 1   
    15     5    18 1   
    16     6     8 1   
    17     6    19 1   
    18     7    20 1   
    19     7    21 1   
    20     7    27 1   
    21     8    22 1   
    22     8    23 1   
    23     9    24 1   
    24     9    25 1   
    25     9    27 2   
    26    10    26 1   
    27    10    28 2   
    28    15    27 1   
@<TRIPOS>SUBSTRUCTURE
     1 1NB         1 TEMP              0 ****  ****    0 ROOT
