@<TRIPOS>MOLECULE
1ND
   46    49     1     0     0
SMALL
bcc


@<TRIPOS>ATOM
      1 O            4.7650     0.3960     2.1610 o          1 1ND      -0.596100
      2 F1          -3.9320    -2.7670     1.0050 f          1 1ND      -0.229300
      3 N1          -2.0260    -0.9300     0.6710 nc         1 1ND      -0.456800
      4 C2          -3.2640    -0.6190     0.3550 cd         1 1ND       0.207600
      5 F2          -5.0830    -1.7800    -0.5290 f          1 1ND      -0.229300
      6 N2          -1.3100     0.1430     0.3490 na         1 1ND       0.189300
      7 C3          -2.0740     1.1360    -0.1800 cc         1 1ND      -0.080600
      8 F3          -5.2340    -1.1250     1.5100 f          1 1ND      -0.229300
      9 N3           5.1230    -0.4130     0.0930 n          1 1ND      -0.478800
     10 C4          -1.6250     2.4480    -0.7220 c6         1 1ND      -0.009100
     11 C5          -2.7280     2.9980    -1.6300 c6         1 1ND      -0.072400
     12 C6          -4.1000     2.9050    -0.9660 c6         1 1ND      -0.075400
     13 C7          -4.5200     1.4530    -0.7300 c6         1 1ND       0.001900
     14 C8          -3.3670     0.6740    -0.1860 cd         1 1ND      -0.210600
     15 C9           0.0910     0.1170     0.5180 ca         1 1ND       0.021800
     16 C10          0.7570     1.2290     1.0160 ca         1 1ND      -0.129500
     17 C11          2.1330     1.1890     1.1730 ca         1 1ND      -0.084000
     18 C12          2.8540     0.0530     0.8210 ca         1 1ND      -0.136600
     19 C13          2.1710    -1.0610     0.3400 ca         1 1ND      -0.084000
     20 C14          0.7950    -1.0350     0.1890 ca         1 1ND      -0.129500
     21 C15          4.3270     0.0270     1.0760 c          1 1ND       0.680700
     22 C16          6.5700    -0.4820     0.2910 c5         1 1ND       0.100500
     23 C17          7.0950    -0.9590    -1.0580 c5         1 1ND      -0.096400
     24 C18          6.0740    -0.4010    -2.0440 c5         1 1ND      -0.096400
     25 C19          4.7550    -0.6100    -1.3100 c5         1 1ND       0.100500
     26 H4          -1.4400     3.1540     0.0940 hc         1 1ND       0.057700
     27 H4A         -0.6860     2.3470    -1.2700 hc         1 1ND       0.057700
     28 H5          -2.4980     4.0350    -1.8800 hc         1 1ND       0.047700
     29 H5A         -2.7380     2.4390    -2.5710 hc         1 1ND       0.047700
     30 H6          -4.0740     3.4410    -0.0130 hc         1 1ND       0.046700
     31 H6A         -4.8490     3.4040    -1.5830 hc         1 1ND       0.046700
     32 H7          -5.3750     1.4150    -0.0510 hc         1 1ND       0.058700
     33 H7A         -4.8530     1.0050    -1.6710 hc         1 1ND       0.058700
     34 H10          0.2120     2.1150     1.3100 ha         1 1ND       0.154000
     35 H11          2.6420     2.0530     1.5780 ha         1 1ND       0.149500
     36 H13          2.7050    -1.9660     0.0840 ha         1 1ND       0.149500
     37 H14          0.2740    -1.9050    -0.1880 ha         1 1ND       0.154000
     38 H16          6.9650     0.5050     0.5450 h1         1 1ND       0.053200
     39 H16A         6.8220    -1.1600     1.1080 h1         1 1ND       0.053200
     40 H17          8.1110    -0.6130    -1.2470 hc         1 1ND       0.055700
     41 H17A         7.1010    -2.0500    -1.1010 hc         1 1ND       0.055700
     42 H18          6.2500     0.6640    -2.2110 hc         1 1ND       0.055700
     43 H18A         6.0860    -0.9010    -3.0110 hc         1 1ND       0.055700
     44 H19          4.3840    -1.6230    -1.4820 h1         1 1ND       0.053200
     45 H19A         3.9800     0.0900    -1.6200 h1         1 1ND       0.053200
     46 C1          -4.3700    -1.5800     0.5890 c3         1 1ND       0.656600
@<TRIPOS>BOND
     1     1    21 2   
     2     2    46 1   
     3     3     4 2   
     4     3     6 1   
     5     4    14 1   
     6     4    46 1   
     7     5    46 1   
     8     6     7 1   
     9     6    15 1   
    10     7    10 1   
    11     7    14 2   
    12     8    46 1   
    13     9    21 1   
    14     9    22 1   
    15     9    25 1   
    16    10    11 1   
    17    10    26 1   
    18    10    27 1   
    19    11    12 1   
    20    11    28 1   
    21    11    29 1   
    22    12    13 1   
    23    12    30 1   
    24    12    31 1   
    25    13    14 1   
    26    13    32 1   
    27    13    33 1   
    28    15    16 ar  
    29    15    20 ar  
    30    16    17 ar  
    31    16    34 1   
    32    17    18 ar  
    33    17    35 1   
    34    18    19 ar  
    35    18    21 1   
    36    19    20 ar  
    37    19    36 1   
    38    20    37 1   
    39    22    23 1   
    40    22    38 1   
    41    22    39 1   
    42    23    24 1   
    43    23    40 1   
    44    23    41 1   
    45    24    25 1   
    46    24    42 1   
    47    24    43 1   
    48    25    44 1   
    49    25    45 1   
@<TRIPOS>SUBSTRUCTURE
     1 1ND         1 TEMP              0 ****  ****    0 ROOT
