@<TRIPOS>MOLECULE
1ND
   46    49     1     0     0
SMALL
No Charge or Current Charge


@<TRIPOS>ATOM
      1 O            4.8160     0.5380     2.1300 o          1 1ND      -0.596100
      2 F1          -4.2230    -2.7170     1.2660 f          1 1ND      -0.108000
      3 N1          -2.1000    -1.0130     0.7900 nc         1 1ND      -0.456800
      4 C2          -3.3330    -0.6350     0.4630 cd         1 1ND       0.142300
      5 F2          -5.2810    -1.7340    -0.3570 f          1 1ND      -0.108000
      6 N2          -1.3490     0.0490     0.3360 na         1 1ND       0.240000
      7 C3          -2.0630     1.0810    -0.2530 cc         1 1ND      -0.131300
      8 F3          -5.3750    -0.9150     1.6550 f          1 1ND      -0.108000
      9 N3           5.2040    -0.4060     0.0800 n          1 1ND      -0.411800
     10 C4          -1.6090     2.3810    -0.8690 c6         1 1ND      -0.009100
     11 C5          -2.7550     2.9690    -1.7380 c6         1 1ND      -0.072400
     12 C6          -4.1320     2.8810    -1.0180 c6         1 1ND      -0.075400
     13 C7          -4.5350     1.4110    -0.7090 c6         1 1ND       0.001900
     14 C8          -3.3470     0.6400    -0.1720 cd         1 1ND      -0.145300
     15 C9           0.0360     0.0580     0.5150 ca         1 1ND       0.021800
     16 C10          0.6580     1.1000     1.2290 ca         1 1ND      -0.111500
     17 C11          2.0520     1.1090     1.4050 ca         1 1ND      -0.066000
     18 C12          2.8540     0.0850     0.8560 ca         1 1ND      -0.136600
     19 C13          2.2220    -0.9760     0.1680 ca         1 1ND      -0.066000
     20 C14          0.8270    -0.9840    -0.0050 ca         1 1ND      -0.111500
     21 C15          4.3520     0.1210     1.0750 c          1 1ND       0.613700
     22 C16          6.6600    -0.5300     0.3020 c5         1 1ND       0.100500
     23 C17          7.1200    -1.1410    -1.0420 c5         1 1ND      -0.096400
     24 C18          6.2600    -0.3260    -2.0370 c5         1 1ND      -0.096400
     25 C19          4.8620    -0.3800    -1.3640 c5         1 1ND       0.100500
     26 H4          -1.3450     3.1000    -0.0810 hc         1 1ND       0.057700
     27 H4A         -0.7070     2.2410    -1.4800 hc         1 1ND       0.057700
     28 H5          -2.5290     4.0130    -1.9940 hc         1 1ND       0.047700
     29 H5A         -2.8100     2.4210    -2.6890 hc         1 1ND       0.047700
     30 H6          -4.0850     3.4510    -0.0790 hc         1 1ND       0.046700
     31 H6A         -4.9100     3.3580    -1.6300 hc         1 1ND       0.046700
     32 H7          -5.3710     1.3960     0.0020 hc         1 1ND       0.058700
     33 H7A         -4.8990     0.9320    -1.6290 hc         1 1ND       0.058700
     34 H10          0.0590     1.9010     1.6570 ha         1 1ND       0.136000
     35 H11          2.5140     1.9230     1.9610 ha         1 1ND       0.131500
     36 H13          2.8010    -1.8150    -0.2080 ha         1 1ND       0.131500
     37 H14          0.3580    -1.8070    -0.5390 ha         1 1ND       0.136000
     38 H16          7.1160     0.4540     0.4780 h1         1 1ND       0.053200
     39 H16A         6.8960    -1.1830     1.1540 h1         1 1ND       0.053200
     40 H17          8.1960    -1.0230    -1.2110 hc         1 1ND       0.055700
     41 H17A         6.8900    -2.2120    -1.0950 hc         1 1ND       0.055700
     42 H18          6.6190     0.7070    -2.1170 hc         1 1ND       0.055700
     43 H18A         6.2550    -0.7510    -3.0470 hc         1 1ND       0.055700
     44 H19          4.3360    -1.2970    -1.6600 h1         1 1ND       0.053200
     45 H19A         4.2400     0.4830    -1.6360 h1         1 1ND       0.053200
     46 C1          -4.5500    -1.5040     0.7580 c3         1 1ND       0.292700
@<TRIPOS>BOND
     1     1    21 2   
     2     2    46 1   
     3     3     4 2   
     4     3     6 1   
     5     4    14 1   
     6     4    46 1   
     7     5    46 1   
     8     6     7 1   
     9     6    15 1   
    10     7    10 1   
    11     7    14 2   
    12     8    46 1   
    13     9    21 1   
    14     9    22 1   
    15     9    25 1   
    16    10    11 1   
    17    10    26 1   
    18    10    27 1   
    19    11    12 1   
    20    11    28 1   
    21    11    29 1   
    22    12    13 1   
    23    12    30 1   
    24    12    31 1   
    25    13    14 1   
    26    13    32 1   
    27    13    33 1   
    28    15    16 ar  
    29    15    20 ar  
    30    16    17 ar  
    31    16    34 1   
    32    17    18 ar  
    33    17    35 1   
    34    18    19 ar  
    35    18    21 1   
    36    19    20 ar  
    37    19    36 1   
    38    20    37 1   
    39    22    23 1   
    40    22    38 1   
    41    22    39 1   
    42    23    24 1   
    43    23    40 1   
    44    23    41 1   
    45    24    25 1   
    46    24    42 1   
    47    24    43 1   
    48    25    44 1   
    49    25    45 1   
@<TRIPOS>SUBSTRUCTURE
     1 1ND         1 TEMP              0 ****  ****    0 ROOT
