@<TRIPOS>MOLECULE
1NE
   42    44     1     0     0
SMALL
bcc


@<TRIPOS>ATOM
      1 C1           7.0680    -0.7570    -0.4140 c3         1 1NE       0.085300
      2 N2           5.6530    -0.4820    -0.5600 n          1 1NE      -0.472800
      3 C3           5.2250    -0.2160    -1.9190 c3         1 1NE       0.085300
      4 C4           4.9070    -0.2580     0.5380 c          1 1NE       0.680700
      5 O5           5.3850    -0.1860     1.6640 o          1 1NE      -0.588100
      6 C6           3.4250    -0.1410     0.3670 ca         1 1NE      -0.139600
      7 C7           2.7530     0.8990     0.9990 ca         1 1NE      -0.083500
      8 C8           1.3720     0.9880     0.9380 ca         1 1NE      -0.129000
      9 C9           0.6530     0.0180     0.2510 ca         1 1NE       0.021800
     10 C10          1.3090    -1.0420    -0.3620 ca         1 1NE      -0.129000
     11 C11          2.6900    -1.1160    -0.3020 ca         1 1NE      -0.083500
     12 N12         -0.7550     0.0920     0.1840 na         1 1NE       0.189300
     13 N13         -1.4700    -1.0210     0.3170 nc         1 1NE      -0.456800
     14 C14         -2.7210    -0.6400     0.1770 cd         1 1NE       0.208600
     15 C15         -2.8340     0.7420    -0.0530 cd         1 1NE      -0.210600
     16 C16         -4.0070     1.6340    -0.2990 c6         1 1NE       0.001900
     17 C17         -3.5690     3.0970    -0.2110 c6         1 1NE      -0.076400
     18 C18         -2.2590     3.3410    -0.9580 c6         1 1NE      -0.072400
     19 C19         -1.0950     2.5810    -0.3150 c6         1 1NE      -0.009100
     20 C20         -1.5330     1.1830    -0.0480 cc         1 1NE      -0.080600
     21 C21         -3.8270    -1.6210     0.2920 c3         1 1NE       0.656600
     22 F22         -3.3860    -2.8780     0.3390 f          1 1NE      -0.229300
     23 F23         -4.5610    -1.4130     1.3970 f          1 1NE      -0.229300
     24 F24         -4.6720    -1.5260    -0.7450 f          1 1NE      -0.229300
     25 H11C         7.6650     0.1560    -0.4820 h1         1 1NE       0.043033
     26 H12C         7.2730    -1.2370     0.5380 h1         1 1NE       0.043033
     27 H13C         7.3810    -1.4280    -1.2140 h1         1 1NE       0.043033
     28 H31C         5.8970     0.5150    -2.3730 h1         1 1NE       0.043033
     29 H32C         5.2500    -1.1230    -2.5250 h1         1 1NE       0.043033
     30 H33C         4.2210     0.1950    -1.9490 h1         1 1NE       0.043033
     31 H7           3.3060     1.6500     1.5480 ha         1 1NE       0.149500
     32 H11          3.1920    -1.9460    -0.7830 ha         1 1NE       0.149500
     33 H8           0.8650     1.7940     1.4490 ha         1 1NE       0.154500
     34 H10          0.7470    -1.8040    -0.8840 ha         1 1NE       0.154500
     35 H161        -4.4250     1.4320    -1.2900 hc         1 1NE       0.058700
     36 H162        -4.8060     1.4350     0.4180 hc         1 1NE       0.058700
     37 H171        -4.3560     3.7360    -0.6160 hc         1 1NE       0.046700
     38 H172        -3.4430     3.3790     0.8380 hc         1 1NE       0.046700
     39 H181        -2.3680     3.0260    -2.0000 hc         1 1NE       0.048200
     40 H182        -2.0240     4.4050    -0.9710 hc         1 1NE       0.048200
     41 H191        -0.2170     2.5990    -0.9650 hc         1 1NE       0.057700
     42 H192        -0.8060     3.0750     0.6170 hc         1 1NE       0.057700
@<TRIPOS>BOND
     1     1     2 1   
     2     1    25 1   
     3     1    26 1   
     4     1    27 1   
     5     2     3 1   
     6     2     4 1   
     7     3    28 1   
     8     3    29 1   
     9     3    30 1   
    10     4     5 2   
    11     4     6 1   
    12     6     7 ar  
    13     6    11 ar  
    14     7     8 ar  
    15     7    31 1   
    16     8     9 ar  
    17     8    33 1   
    18     9    10 ar  
    19     9    12 1   
    20    10    11 ar  
    21    10    34 1   
    22    11    32 1   
    23    12    13 1   
    24    12    20 1   
    25    13    14 2   
    26    14    15 1   
    27    14    21 1   
    28    15    16 1   
    29    15    20 2   
    30    16    17 1   
    31    16    35 1   
    32    16    36 1   
    33    17    18 1   
    34    17    37 1   
    35    17    38 1   
    36    18    19 1   
    37    18    39 1   
    38    18    40 1   
    39    19    20 1   
    40    19    41 1   
    41    19    42 1   
    42    21    22 1   
    43    21    23 1   
    44    21    24 1   
@<TRIPOS>SUBSTRUCTURE
     1 1NE         1 TEMP              0 ****  ****    0 ROOT
