@<TRIPOS>MOLECULE
1NE
   42    44     1     0     0
SMALL
No Charge or Current Charge


@<TRIPOS>ATOM
      1 C1           7.1740    -0.7920    -0.4190 c3         1 1NE       0.085300
      2 N2           5.7280    -0.5270    -0.5900 n          1 1NE      -0.405800
      3 C3           5.3000    -0.1660    -1.9620 c3         1 1NE       0.085300
      4 C4           4.9520    -0.1560     0.5350 c          1 1NE       0.613700
      5 O5           5.4880     0.0590     1.6160 o          1 1NE      -0.588100
      6 C6           3.4400    -0.1230     0.4120 ca         1 1NE      -0.139600
      7 C7           2.7000     0.7550     1.2330 ca         1 1NE      -0.065500
      8 C8           1.2980     0.8010     1.1550 ca         1 1NE      -0.111000
      9 C9           0.6060    -0.0420     0.2640 ca         1 1NE       0.021800
     10 C10          1.3350    -0.9420    -0.5340 ca         1 1NE      -0.111000
     11 C11          2.7380    -0.9880    -0.4590 ca         1 1NE      -0.065500
     12 N12         -0.7880     0.0040     0.1820 na         1 1NE       0.240000
     13 N13         -1.5350    -1.1270     0.4290 nc         1 1NE      -0.456800
     14 C14         -2.7760    -0.6710     0.2820 cd         1 1NE       0.143300
     15 C15         -2.7990     0.7170    -0.0390 cd         1 1NE      -0.145300
     16 C16         -3.9990     1.6020    -0.3020 c6         1 1NE       0.001900
     17 C17         -3.5800     3.1000    -0.2890 c6         1 1NE      -0.076400
     18 C18         -2.2510     3.3390    -1.0610 c6         1 1NE      -0.072400
     19 C19         -1.0660     2.5550    -0.4300 c6         1 1NE      -0.009100
     20 C20         -1.5120     1.1520    -0.1020 cc         1 1NE      -0.131300
     21 C21         -3.9930    -1.5730     0.4500 c3         1 1NE       0.292700
     22 F22         -3.6650    -2.8740     0.6410 f          1 1NE      -0.108000
     23 F23         -4.7440    -1.2010     1.5120 f          1 1NE      -0.108000
     24 F24         -4.7990    -1.5320    -0.6360 f          1 1NE      -0.108000
     25 H11C         7.7030     0.1500    -0.2230 h1         1 1NE       0.043033
     26 H12C         7.3320    -1.4780     0.4230 h1         1 1NE       0.043033
     27 H13C         7.5840    -1.2520    -1.3270 h1         1 1NE       0.043033
     28 H31C         6.1410     0.2740    -2.5150 h1         1 1NE       0.043033
     29 H32C         4.9620    -1.0640    -2.4950 h1         1 1NE       0.043033
     30 H33C         4.4870     0.5700    -1.9360 h1         1 1NE       0.043033
     31 H7           3.2150     1.4150     1.9300 ha         1 1NE       0.131500
     32 H11          3.2710    -1.7180    -1.0630 ha         1 1NE       0.131500
     33 H8           0.7480     1.4870     1.7950 ha         1 1NE       0.136500
     34 H10          0.8120    -1.6130    -1.2130 ha         1 1NE       0.136500
     35 H161        -4.4330     1.3540    -1.2800 hc         1 1NE       0.058700
     36 H162        -4.7880     1.4310     0.4430 hc         1 1NE       0.058700
     37 H171        -4.3830     3.7130    -0.7200 hc         1 1NE       0.046700
     38 H172        -3.4590     3.4360     0.7510 hc         1 1NE       0.046700
     39 H181        -2.3790     3.0280    -2.1070 hc         1 1NE       0.048200
     40 H182        -2.0150     4.4120    -1.0840 hc         1 1NE       0.048200
     41 H191        -0.2090     2.5520    -1.1170 hc         1 1NE       0.057700
     42 H192        -0.7350     3.0690     0.4820 hc         1 1NE       0.057700
@<TRIPOS>BOND
     1     1     2 1   
     2     1    25 1   
     3     1    26 1   
     4     1    27 1   
     5     2     3 1   
     6     2     4 1   
     7     3    28 1   
     8     3    29 1   
     9     3    30 1   
    10     4     5 2   
    11     4     6 1   
    12     6     7 ar  
    13     6    11 ar  
    14     7     8 ar  
    15     7    31 1   
    16     8     9 ar  
    17     8    33 1   
    18     9    10 ar  
    19     9    12 1   
    20    10    11 ar  
    21    10    34 1   
    22    11    32 1   
    23    12    13 1   
    24    12    20 1   
    25    13    14 2   
    26    14    15 1   
    27    14    21 1   
    28    15    16 1   
    29    15    20 2   
    30    16    17 1   
    31    16    35 1   
    32    16    36 1   
    33    17    18 1   
    34    17    37 1   
    35    17    38 1   
    36    18    19 1   
    37    18    39 1   
    38    18    40 1   
    39    19    20 1   
    40    19    41 1   
    41    19    42 1   
    42    21    22 1   
    43    21    23 1   
    44    21    24 1   
@<TRIPOS>SUBSTRUCTURE
     1 1NE         1 TEMP              0 ****  ****    0 ROOT
