@<TRIPOS>MOLECULE
1NF
   46    49     1     0     0
SMALL
No Charge or Current Charge


@<TRIPOS>ATOM
      1 C1          -2.2270    -1.0040     0.1300 ca         1 1NF       0.203000
      2 F1          -2.9910    -1.7140     0.9900 f          1 1NF      -0.159000
      3 N1          -5.1070     0.4400    -0.3840 n          1 1NF      -0.420800
      4 C2          -0.8480    -0.9040     0.3670 ca         1 1NF      -0.166000
      5 N2           1.3460    -0.0680    -0.2830 na         1 1NF       0.238000
      6 C3          -0.0280    -0.1690    -0.5110 ca         1 1NF       0.038800
      7 N3           1.9360     1.1680    -0.1330 nc         1 1NF      -0.458800
      8 C4          -0.6110     0.4700    -1.6240 ca         1 1NF      -0.110000
      9 C5          -1.9930     0.3690    -1.8610 ca         1 1NF      -0.071000
     10 C6          -2.8120    -0.3710    -0.9850 ca         1 1NF      -0.144300
     11 C7          -4.3110    -0.4660    -1.2390 c3         1 1NF       0.160300
     12 C8          -4.7770     1.8640    -0.1610 c5         1 1NF       0.095000
     13 C9          -5.4230     2.1120     1.2370 c5         1 1NF      -0.090400
     14 C10         -6.6630     1.1840     1.1520 c5         1 1NF      -0.167400
     15 C11         -6.1100    -0.0540     0.4550 c          1 1NF       0.567000
     16 C12          3.2050     0.8390     0.0920 cd         1 1NF       0.144300
     17 C13          3.3980    -0.5720     0.0910 cd         1 1NF      -0.145300
     18 C14          4.6840    -1.3460     0.2890 c6         1 1NF       0.001900
     19 C15          4.3780    -2.8510     0.5350 c6         1 1NF      -0.076400
     20 C16          3.2850    -3.3890    -0.4330 c6         1 1NF      -0.072400
     21 C17          1.9350    -2.6400    -0.2550 c6         1 1NF      -0.011100
     22 C18          2.1940    -1.1570    -0.1500 cc         1 1NF      -0.127300
     23 C19          4.2840     1.8920     0.3170 c3         1 1NF       0.292700
     24 H2          -0.4210    -1.3930     1.2380 ha         1 1NF       0.146000
     25 H4           0.0110     1.0440    -2.3070 ha         1 1NF       0.146000
     26 H5          -2.4270     0.8710    -2.7240 ha         1 1NF       0.124000
     27 H7          -4.6320    -1.5060    -1.0970 h1         1 1NF       0.068200
     28 H7A         -4.5190    -0.2140    -2.2870 h1         1 1NF       0.068200
     29 H8          -3.6960     2.0560    -0.1520 h1         1 1NF       0.047200
     30 H8A         -5.2380     2.4910    -0.9370 h1         1 1NF       0.047200
     31 H9          -4.7490     1.7970     2.0420 hc         1 1NF       0.058700
     32 H9A         -5.6780     3.1650     1.4070 hc         1 1NF       0.058700
     33 H10         -7.1400     0.9380     2.1060 hc         1 1NF       0.077700
     34 H10A        -7.3930     1.6510     0.4810 hc         1 1NF       0.077700
     35 H14          5.3160    -1.2440    -0.6040 hc         1 1NF       0.059200
     36 H14A         5.2640    -0.9430     1.1290 hc         1 1NF       0.059200
     37 H15          5.3000    -3.4390     0.4280 hc         1 1NF       0.047200
     38 H15A         4.0410    -2.9900     1.5720 hc         1 1NF       0.047200
     39 H16          3.6320    -3.2740    -1.4700 hc         1 1NF       0.049200
     40 H16A         3.1360    -4.4660    -0.2740 hc         1 1NF       0.049200
     41 H17          1.2630    -2.8710    -1.0930 hc         1 1NF       0.059700
     42 H17A         1.4370    -3.0010     0.6550 hc         1 1NF       0.059700
     43 O1          -6.3090    -1.2340     0.7050 o          1 1NF      -0.545000
     44 F2           3.8320     3.1580     0.1480 f          1 1NF      -0.107667
     45 F3           5.3220     1.7340    -0.5360 f          1 1NF      -0.107667
     46 F4           4.7910     1.8240     1.5700 f          1 1NF      -0.107667
@<TRIPOS>BOND
     1     1     2 1   
     2     1     4 ar  
     3     1    10 ar  
     4     3    11 1   
     5     3    12 1   
     6     3    15 1   
     7     4     6 ar  
     8     4    24 1   
     9     5     6 1   
    10     5     7 1   
    11     5    22 1   
    12     6     8 ar  
    13     7    16 2   
    14     8     9 ar  
    15     8    25 1   
    16     9    10 ar  
    17     9    26 1   
    18    10    11 1   
    19    11    27 1   
    20    11    28 1   
    21    12    13 1   
    22    12    29 1   
    23    12    30 1   
    24    13    14 1   
    25    13    31 1   
    26    13    32 1   
    27    14    15 1   
    28    14    33 1   
    29    14    34 1   
    30    15    43 2   
    31    16    17 1   
    32    16    23 1   
    33    17    18 1   
    34    17    22 2   
    35    18    19 1   
    36    18    35 1   
    37    18    36 1   
    38    19    20 1   
    39    19    37 1   
    40    19    38 1   
    41    20    21 1   
    42    20    39 1   
    43    20    40 1   
    44    21    22 1   
    45    21    41 1   
    46    21    42 1   
    47    23    44 1   
    48    23    45 1   
    49    23    46 1   
@<TRIPOS>SUBSTRUCTURE
     1 1NF         1 TEMP              0 ****  ****    0 ROOT
