@<TRIPOS>MOLECULE
1NF
   46    49     1     0     0
SMALL
abcg2


@<TRIPOS>ATOM
      1 C1          -2.1830    -0.8940    -0.0790 ca         1 1NF       0.203000
      2 F1          -2.9870    -1.6530     0.6770 f          1 1NF      -0.159000
      3 N1          -4.9740     0.4270    -0.3100 n          1 1NF      -0.420800
      4 C2          -0.8350    -0.8820     0.2170 ca         1 1NF      -0.166000
      5 N2           1.3880    -0.0770    -0.3030 na         1 1NF       0.238000
      6 C3           0.0030    -0.1010    -0.5680 ca         1 1NF       0.038800
      7 N3           2.0380     1.0830    -0.3390 nc         1 1NF      -0.458800
      8 C4          -0.5100     0.6610    -1.6090 ca         1 1NF      -0.110000
      9 C5          -1.8730     0.6320    -1.8600 ca         1 1NF      -0.071000
     10 C6          -2.7410    -0.1510    -1.1080 ca         1 1NF      -0.144300
     11 C7          -4.2210    -0.1770    -1.3790 c3         1 1NF       0.160300
     12 C8          -4.8560     1.8410    -0.0100 c5         1 1NF       0.095000
     13 C9          -5.5850     1.9710     1.3280 c5         1 1NF      -0.090400
     14 C10         -6.5830     0.8180     1.3050 c5         1 1NF      -0.167400
     15 C11         -5.9560    -0.1970     0.3740 c          1 1NF       0.567000
     16 C12          3.2950     0.7720    -0.1070 cd         1 1NF       0.144300
     17 C13          3.4780    -0.6080     0.0820 cd         1 1NF      -0.145300
     18 C14          4.6910    -1.4440     0.3300 c6         1 1NF       0.001900
     19 C15          4.2690    -2.8610     0.7210 c6         1 1NF      -0.076400
     20 C16          3.1520    -3.3890    -0.1770 c6         1 1NF      -0.072400
     21 C17          1.8670    -2.5740    -0.0050 c6         1 1NF      -0.011100
     22 C18          2.2150    -1.1280    -0.0590 cc         1 1NF      -0.127300
     23 C19          4.3360     1.8270    -0.0370 c3         1 1NF       0.292700
     24 H2          -0.4620    -1.4540     1.0560 ha         1 1NF       0.146000
     25 H4           0.1460     1.2670    -2.2170 ha         1 1NF       0.146000
     26 H5          -2.2730     1.2250    -2.6720 ha         1 1NF       0.124000
     27 H7          -4.5750    -1.1990    -1.5130 h1         1 1NF       0.068200
     28 H7A         -4.4200     0.3530    -2.3150 h1         1 1NF       0.068200
     29 H8          -3.8090     2.1410     0.0550 h1         1 1NF       0.047200
     30 H8A         -5.3270     2.4400    -0.7970 h1         1 1NF       0.047200
     31 H9          -4.8770     1.8370     2.1470 hc         1 1NF       0.058700
     32 H9A         -6.0530     2.9460     1.4460 hc         1 1NF       0.058700
     33 H10         -6.7850     0.3830     2.2830 hc         1 1NF       0.077700
     34 H10A        -7.5440     1.1180     0.8770 hc         1 1NF       0.077700
     35 H14          5.3090    -1.4750    -0.5730 hc         1 1NF       0.059200
     36 H14A         5.3140    -1.0060     1.1120 hc         1 1NF       0.059200
     37 H15          5.1330    -3.5260     0.6750 hc         1 1NF       0.047200
     38 H15A         3.9250    -2.8650     1.7600 hc         1 1NF       0.047200
     39 H16          3.4710    -3.3510    -1.2220 hc         1 1NF       0.049200
     40 H16A         2.9450    -4.4340     0.0540 hc         1 1NF       0.049200
     41 H17          1.1330    -2.8330    -0.7720 hc         1 1NF       0.059700
     42 H17A         1.4120    -2.8200     0.9590 hc         1 1NF       0.059700
     43 O1          -6.2930    -1.3610     0.2350 o          1 1NF      -0.545000
     44 F2           3.8700     3.0260    -0.3810 f          1 1NF      -0.107667
     45 F3           5.3680     1.5460    -0.8470 f          1 1NF      -0.107667
     46 F4           4.8460     1.9330     1.2000 f          1 1NF      -0.107667
@<TRIPOS>BOND
     1     1     2 1   
     2     1     4 ar  
     3     1    10 ar  
     4     3    11 1   
     5     3    12 1   
     6     3    15 1   
     7     4     6 ar  
     8     4    24 1   
     9     5     6 1   
    10     5     7 1   
    11     5    22 1   
    12     6     8 ar  
    13     7    16 2   
    14     8     9 ar  
    15     8    25 1   
    16     9    10 ar  
    17     9    26 1   
    18    10    11 1   
    19    11    27 1   
    20    11    28 1   
    21    12    13 1   
    22    12    29 1   
    23    12    30 1   
    24    13    14 1   
    25    13    31 1   
    26    13    32 1   
    27    14    15 1   
    28    14    33 1   
    29    14    34 1   
    30    15    43 2   
    31    16    17 1   
    32    16    23 1   
    33    17    18 1   
    34    17    22 2   
    35    18    19 1   
    36    18    35 1   
    37    18    36 1   
    38    19    20 1   
    39    19    37 1   
    40    19    38 1   
    41    20    21 1   
    42    20    39 1   
    43    20    40 1   
    44    21    22 1   
    45    21    41 1   
    46    21    42 1   
    47    23    44 1   
    48    23    45 1   
    49    23    46 1   
@<TRIPOS>SUBSTRUCTURE
     1 1NF         1 TEMP              0 ****  ****    0 ROOT
