@<TRIPOS>MOLECULE
1NG
   49    52     1     0     0
SMALL
bcc


@<TRIPOS>ATOM
      1 F1          -3.9190     3.0670     0.2010 f          1 1NG      -0.230633
      2 C2          -4.5210     1.8990    -0.0180 c3         1 1NG       0.656600
      3 F3          -5.4700     1.7500     0.9180 f          1 1NG      -0.230633
      4 F4          -5.1650     1.9940    -1.1920 f          1 1NG      -0.230633
      5 C5          -3.5680     0.7620    -0.0070 cc         1 1NG       0.203600
      6 N6          -2.2720     0.9740     0.0780 nd         1 1NG      -0.452800
      7 N7          -1.7240    -0.2360     0.0370 na         1 1NG       0.194300
      8 C8          -2.6530    -1.2220    -0.0650 cd         1 1NG      -0.082600
      9 C9          -2.4260    -2.6930    -0.0790 c6         1 1NG      -0.008100
     10 C10         -3.7470    -3.3920     0.2550 c6         1 1NG      -0.072400
     11 C11         -4.9100    -2.8090    -0.5460 c6         1 1NG      -0.075400
     12 C12         -5.1740    -1.3460    -0.1850 c6         1 1NG       0.002900
     13 C13         -3.8800    -0.6050    -0.1030 cc         1 1NG      -0.213600
     14 C14         -0.3210    -0.3680     0.1510 ca         1 1NG       0.004800
     15 C15          0.3750    -1.2130    -0.7020 ca         1 1NG      -0.115500
     16 C16          1.7500    -1.3370    -0.5700 ca         1 1NG      -0.103000
     17 C17          2.4470    -0.6180     0.3940 ca         1 1NG      -0.056300
     18 C18          3.9350    -0.7330     0.5120 c3         1 1NG      -0.114100
     19 C19          4.6550     0.2440    -0.4060 c          1 1NG       0.670100
     20 O20          4.0530     0.9280    -1.2230 o          1 1NG      -0.591100
     21 N21          5.9860     0.3040    -0.2630 n          1 1NG      -0.489800
     22 C22          6.8020     1.2250    -1.0490 c5         1 1NG       0.102000
     23 C23          8.1540     1.1860    -0.3450 c5         1 1NG      -0.094400
     24 C24          8.2140    -0.2310     0.2170 c5         1 1NG      -0.094400
     25 C25          6.7820    -0.4850     0.6730 c5         1 1NG       0.102000
     26 C26          1.7320     0.2330     1.2310 ca         1 1NG      -0.103000
     27 C27          0.3560     0.3580     1.1220 ca         1 1NG      -0.115500
     28 H9          -2.0800    -3.0150    -1.0650 hc         1 1NG       0.056700
     29 H9A         -1.6460    -2.9770     0.6320 hc         1 1NG       0.056700
     30 H10         -3.6470    -4.4590     0.0520 hc         1 1NG       0.046700
     31 H10A        -3.9510    -3.2900     1.3250 hc         1 1NG       0.046700
     32 H11         -4.6860    -2.8890    -1.6140 hc         1 1NG       0.045200
     33 H11A        -5.8130    -3.3960    -0.3710 hc         1 1NG       0.045200
     34 H12         -5.8390    -0.8910    -0.9220 hc         1 1NG       0.057200
     35 H12A        -5.6970    -1.2900     0.7740 hc         1 1NG       0.057200
     36 H15         -0.1420    -1.7570    -1.4820 ha         1 1NG       0.150000
     37 H16          2.2840    -2.0010    -1.2390 ha         1 1NG       0.137000
     38 H18          4.2500    -0.5620     1.5450 hc         1 1NG       0.064700
     39 H18A         4.2600    -1.7480     0.2660 hc         1 1NG       0.064700
     40 H22          6.8820     0.8790    -2.0830 h1         1 1NG       0.050200
     41 H22A         6.3630     2.2230    -1.0660 h1         1 1NG       0.050200
     42 H23          8.9760     1.4130    -1.0230 hc         1 1NG       0.055450
     43 H23A         8.1770     1.9160     0.4670 hc         1 1NG       0.055450
     44 H24          8.4880    -0.9370    -0.5700 hc         1 1NG       0.055450
     45 H24A         8.9290    -0.3440     1.0310 hc         1 1NG       0.055450
     46 H25          6.6270    -0.1430     1.7010 h1         1 1NG       0.050200
     47 H25A         6.5190    -1.5430     0.6330 h1         1 1NG       0.050200
     48 H26          2.2520     0.7980     1.9940 ha         1 1NG       0.137000
     49 H27         -0.1880     1.0100     1.7920 ha         1 1NG       0.150000
@<TRIPOS>BOND
     1     1     2 1   
     2     2     3 1   
     3     2     4 1   
     4     2     5 1   
     5     5     6 2   
     6     5    13 1   
     7     6     7 1   
     8     7     8 1   
     9     7    14 1   
    10     8     9 1   
    11     8    13 2   
    12     9    10 1   
    13     9    28 1   
    14     9    29 1   
    15    10    11 1   
    16    10    30 1   
    17    10    31 1   
    18    11    12 1   
    19    11    32 1   
    20    11    33 1   
    21    12    13 1   
    22    12    34 1   
    23    12    35 1   
    24    14    15 ar  
    25    14    27 ar  
    26    15    16 ar  
    27    15    36 1   
    28    16    17 ar  
    29    16    37 1   
    30    17    18 1   
    31    17    26 ar  
    32    18    19 1   
    33    18    38 1   
    34    18    39 1   
    35    19    20 2   
    36    19    21 1   
    37    21    22 1   
    38    21    25 1   
    39    22    23 1   
    40    22    40 1   
    41    22    41 1   
    42    23    24 1   
    43    23    42 1   
    44    23    43 1   
    45    24    25 1   
    46    24    44 1   
    47    24    45 1   
    48    25    46 1   
    49    25    47 1   
    50    26    27 ar  
    51    26    48 1   
    52    27    49 1   
@<TRIPOS>SUBSTRUCTURE
     1 1NG         1 TEMP              0 ****  ****    0 ROOT
