@<TRIPOS>MOLECULE
1NG
   49    52     1     0     0
SMALL
No Charge or Current Charge


@<TRIPOS>ATOM
      1 F1          -3.3250     3.2790     0.9810 f          1 1NG      -0.109333
      2 C2          -3.9490     2.0960     0.7640 c3         1 1NG       0.292700
      3 F3          -4.6960     1.8420     1.8630 f          1 1NG      -0.109333
      4 F4          -4.8060     2.2890    -0.2660 f          1 1NG      -0.109333
      5 C5          -2.9690     0.9660     0.4730 cc         1 1NG       0.138300
      6 N6          -1.6570     1.1340     0.3490 nd         1 1NG      -0.452800
      7 N7          -1.2400    -0.1600     0.0950 na         1 1NG       0.245000
      8 C8          -2.2490    -1.1190     0.0790 cd         1 1NG      -0.133300
      9 C9          -2.2170    -2.6160    -0.1400 c6         1 1NG      -0.008100
     10 C10         -3.5680    -3.2430     0.3040 c6         1 1NG      -0.072400
     11 C11         -4.7850    -2.4000    -0.1790 c6         1 1NG      -0.075400
     12 C12         -4.7660    -0.9570     0.4020 c6         1 1NG       0.002900
     13 C13         -3.3690    -0.3880     0.3110 cc         1 1NG      -0.148300
     14 C14          0.0680    -0.6010    -0.0920 ca         1 1NG       0.004800
     15 C15          0.5160    -0.9760    -1.3730 ca         1 1NG      -0.097500
     16 C16          1.8350    -1.4260    -1.5580 ca         1 1NG      -0.085000
     17 C17          2.7200    -1.5040    -0.4660 ca         1 1NG      -0.056300
     18 C18          4.1520    -1.9880    -0.6730 c3         1 1NG      -0.114100
     19 C19          4.9950    -0.9040    -1.3710 c          1 1NG       0.603100
     20 O20          4.9870    -0.8080    -2.5930 o          1 1NG      -0.591100
     21 N21          5.7510     0.0030    -0.5950 n          1 1NG      -0.422800
     22 C22          6.5450     1.0910    -1.2060 c5         1 1NG       0.102000
     23 C23          6.7760     2.0330     0.0030 c5         1 1NG      -0.094400
     24 C24          6.9340     1.0210     1.1630 c5         1 1NG      -0.094400
     25 C25          5.7680     0.0390     0.8860 c5         1 1NG       0.102000
     26 C26          2.2700    -1.1280     0.8150 ca         1 1NG      -0.085000
     27 C27          0.9510    -0.6780     1.0010 ca         1 1NG      -0.097500
     28 H9          -2.0450    -2.8310    -1.2040 hc         1 1NG       0.056700
     29 H9A         -1.3890    -3.0800     0.4120 hc         1 1NG       0.056700
     30 H10         -3.6440    -4.2700    -0.0780 hc         1 1NG       0.046700
     31 H10A        -3.5930    -3.3170     1.4000 hc         1 1NG       0.046700
     32 H11         -4.7750    -2.3510    -1.2770 hc         1 1NG       0.045200
     33 H11A        -5.7230    -2.8990     0.1000 hc         1 1NG       0.045200
     34 H12         -5.4930    -0.3340    -0.1370 hc         1 1NG       0.057200
     35 H12A        -5.0930    -0.9820     1.4500 hc         1 1NG       0.057200
     36 H15         -0.1590    -0.9180    -2.2250 ha         1 1NG       0.132000
     37 H16          2.1690    -1.7130    -2.5530 ha         1 1NG       0.119000
     38 H18          4.5810    -2.2530     0.2970 hc         1 1NG       0.064700
     39 H18A         4.1360    -2.8810    -1.3080 hc         1 1NG       0.064700
     40 H22          7.4930     0.7010    -1.6000 h1         1 1NG       0.050200
     41 H22A         6.0100     1.5970    -2.0200 h1         1 1NG       0.050200
     42 H23          7.6540     2.6750    -0.1270 hc         1 1NG       0.055450
     43 H23A         5.9100     2.6870     0.1640 hc         1 1NG       0.055450
     44 H24          7.9020     0.5090     1.1110 hc         1 1NG       0.055450
     45 H24A         6.8620     1.4890     2.1510 hc         1 1NG       0.055450
     46 H25          4.8150     0.4240     1.2740 h1         1 1NG       0.050200
     47 H25A         5.9650    -0.9420     1.3370 h1         1 1NG       0.050200
     48 H26          2.9380    -1.1850     1.6710 ha         1 1NG       0.119000
     49 H27          0.6130    -0.3900     1.9940 ha         1 1NG       0.132000
@<TRIPOS>BOND
     1     1     2 1   
     2     2     3 1   
     3     2     4 1   
     4     2     5 1   
     5     5     6 2   
     6     5    13 1   
     7     6     7 1   
     8     7     8 1   
     9     7    14 1   
    10     8     9 1   
    11     8    13 2   
    12     9    10 1   
    13     9    28 1   
    14     9    29 1   
    15    10    11 1   
    16    10    30 1   
    17    10    31 1   
    18    11    12 1   
    19    11    32 1   
    20    11    33 1   
    21    12    13 1   
    22    12    34 1   
    23    12    35 1   
    24    14    15 ar  
    25    14    27 ar  
    26    15    16 ar  
    27    15    36 1   
    28    16    17 ar  
    29    16    37 1   
    30    17    18 1   
    31    17    26 ar  
    32    18    19 1   
    33    18    38 1   
    34    18    39 1   
    35    19    20 2   
    36    19    21 1   
    37    21    22 1   
    38    21    25 1   
    39    22    23 1   
    40    22    40 1   
    41    22    41 1   
    42    23    24 1   
    43    23    42 1   
    44    23    43 1   
    45    24    25 1   
    46    24    44 1   
    47    24    45 1   
    48    25    46 1   
    49    25    47 1   
    50    26    27 ar  
    51    26    48 1   
    52    27    49 1   
@<TRIPOS>SUBSTRUCTURE
     1 1NG         1 TEMP              0 ****  ****    0 ROOT
