@<TRIPOS>MOLECULE
1NJ
   69    71     1     0     0
SMALL
bcc


@<TRIPOS>ATOM
      1 O1          -1.1960     0.6050    -0.5440 o          1 1NJ      -0.561100
      2 C2          -2.1870    -0.0950    -0.4770 c          1 1NJ       0.607600
      3 N3          -3.4520     0.3620    -0.3120 ns         1 1NJ      -0.452100
      4 C5          -3.9070     1.6680    -0.1790 ca         1 1NJ       0.126600
      5 C6          -5.2930     1.8520    -0.1140 ca         1 1NJ      -0.188500
      6 C8          -5.8350     3.1120     0.0260 ca         1 1NJ      -0.067500
      7 C10         -5.0190     4.2400     0.0970 ca         1 1NJ      -0.204900
      8 C11         -5.6320     5.5850     0.2550 ce         1 1NJ       0.676800
      9 N12         -4.8310     6.6390    -0.0840 nv         1 1NJ      -0.966800
     10 N15         -6.8160     5.6690     0.7310 n2         1 1NJ      -0.844100
     11 C17         -3.6420     4.0510     0.0380 ca         1 1NJ      -0.067500
     12 C19         -3.0800     2.7890    -0.0970 ca         1 1NJ      -0.188500
     13 C21         -2.1210    -1.5890    -0.6040 ca         1 1NJ       0.447800
     14 N22         -3.2690    -2.1810    -0.9240 nb         1 1NJ      -0.781000
     15 C23         -3.3140    -3.4820    -1.0910 ca         1 1NJ       0.637600
     16 O24         -4.4650    -4.0750    -1.4070 os         1 1NJ      -0.448100
     17 C25         -5.6190    -3.2600    -1.5590 c3         1 1NJ       0.140700
     18 C29         -2.1800    -4.2870    -0.9510 ca         1 1NJ      -0.259300
     19 C31         -1.0020    -3.6670    -0.6050 ca         1 1NJ      -0.072000
     20 C33         -0.9380    -2.2840    -0.4050 cp         1 1NJ      -0.056300
     21 C34          0.3640    -1.6930    -0.0150 cp         1 1NJ       0.004000
     22 C35          1.4110    -1.8470    -0.9220 ca         1 1NJ      -0.154000
     23 C37          2.6880    -1.3900    -0.6430 ca         1 1NJ      -0.133000
     24 C39          0.6140    -1.0670     1.2160 ca         1 1NJ      -0.106600
     25 C40         -0.4530    -0.8570     2.2910 c          1 1NJ       0.925200
     26 O41         -1.5300    -1.4610     2.1490 o          1 1NJ      -0.816300
     27 O43         -0.1420    -0.1000     3.2310 o          1 1NJ      -0.816300
     28 C44          1.9050    -0.6290     1.4840 ca         1 1NJ      -0.051000
     29 C46          2.9460    -0.7700     0.5740 ca         1 1NJ      -0.174600
     30 C47          4.3100    -0.3000     0.9650 c          1 1NJ       0.685700
     31 O48          4.6520    -0.2710     2.1410 o          1 1NJ      -0.618100
     32 N49          5.1070     0.0730    -0.0510 ns         1 1NJ      -0.575900
     33 C51          6.4820     0.5070     0.0950 c3         1 1NJ       0.119700
     34 C53          6.6150     1.9090    -0.4880 c3         1 1NJ       0.123400
     35 O56          6.1870     1.9230    -1.8320 oh         1 1NJ      -0.602800
     36 C58          7.4830    -0.5690    -0.4080 c3         1 1NJ      -0.050000
     37 C59          8.9120    -0.0760    -0.1760 c3         1 1NJ      -0.081433
     38 C63          7.2720    -1.8410     0.4210 c3         1 1NJ      -0.081433
     39 C67          7.2990    -0.9190    -1.8860 c3         1 1NJ      -0.081433
     40 H1          -4.1610    -0.3600    -0.3490 hn         1 1NJ       0.344500
     41 H2          -5.9530     0.9940    -0.1730 ha         1 1NJ       0.151500
     42 H3          -6.9100     3.2270     0.0740 ha         1 1NJ       0.134000
     43 H4          -4.1270     6.5010    -0.7890 hn         1 1NJ       0.399300
     44 H5          -5.2620     7.5500    -0.1200 hn         1 1NJ       0.399300
     45 H6          -7.1290     6.6350     0.7620 hn         1 1NJ       0.355400
     46 H7          -2.9670     4.8930     0.1170 ha         1 1NJ       0.134000
     47 H8          -2.0080     2.6940    -0.1290 ha         1 1NJ       0.151500
     48 H9          -5.8890    -2.7640    -0.6250 h1         1 1NJ       0.038700
     49 H10         -5.4820    -2.5020    -2.3310 h1         1 1NJ       0.038700
     50 H11         -6.4220    -3.9320    -1.8510 h1         1 1NJ       0.038700
     51 H12         -2.2340    -5.3570    -1.0990 ha         1 1NJ       0.141000
     52 H13         -0.1100    -4.2660    -0.4660 ha         1 1NJ       0.139000
     53 H14          1.2230    -2.3350    -1.8710 ha         1 1NJ       0.109000
     54 H15          3.4710    -1.5560    -1.3730 ha         1 1NJ       0.108000
     55 H17          2.0980    -0.1590     2.4390 ha         1 1NJ       0.174000
     56 H18          4.7020     0.1660    -0.9680 hn         1 1NJ       0.326500
     57 H19          6.6700     0.6230     1.1650 h1         1 1NJ       0.078700
     58 H20          6.0000     2.5770     0.1250 h1         1 1NJ       0.024700
     59 H21          7.6500     2.2540    -0.3860 h1         1 1NJ       0.024700
     60 H22          6.0660     2.8380    -2.0990 ho         1 1NJ       0.400000
     61 H23          9.0630     0.2380     0.8590 hc         1 1NJ       0.032811
     62 H24          9.6270    -0.8750    -0.3820 hc         1 1NJ       0.032811
     63 H25          9.1750     0.7620    -0.8240 hc         1 1NJ       0.032811
     64 H26          6.2860    -2.2760     0.2560 hc         1 1NJ       0.032811
     65 H27          8.0090    -2.5970     0.1430 hc         1 1NJ       0.032811
     66 H28          7.3820    -1.6480     1.4900 hc         1 1NJ       0.032811
     67 H29          7.5390    -0.0850    -2.5430 hc         1 1NJ       0.032811
     68 H30          7.9550    -1.7500    -2.1540 hc         1 1NJ       0.032811
     69 H31          6.2770    -1.2360    -2.1040 hc         1 1NJ       0.032811
@<TRIPOS>BOND
     1     1     2 2   
     2     2     3 1   
     3     2    13 1   
     4     3     4 1   
     5     3    40 1   
     6     4     5 ar  
     7     4    12 ar  
     8     5     6 ar  
     9     5    41 1   
    10     6     7 ar  
    11     6    42 1   
    12     7     8 1   
    13     7    11 ar  
    14     8     9 1   
    15     8    10 2   
    16     9    43 1   
    17     9    44 1   
    18    10    45 1   
    19    11    12 ar  
    20    11    46 1   
    21    12    47 1   
    22    13    14 ar  
    23    13    20 ar  
    24    14    15 ar  
    25    15    16 1   
    26    15    18 ar  
    27    16    17 1   
    28    17    48 1   
    29    17    49 1   
    30    17    50 1   
    31    18    19 ar  
    32    18    51 1   
    33    19    20 ar  
    34    19    52 1   
    35    20    21 1   
    36    21    22 ar  
    37    21    24 ar  
    38    22    23 ar  
    39    22    53 1   
    40    23    29 ar  
    41    23    54 1   
    42    24    25 1   
    43    24    28 ar  
    44    25    26 1   
    45    25    27 1   
    46    28    29 ar  
    47    28    55 1   
    48    29    30 1   
    49    30    31 2   
    50    30    32 1   
    51    32    33 1   
    52    32    56 1   
    53    33    34 1   
    54    33    36 1   
    55    33    57 1   
    56    34    35 1   
    57    34    58 1   
    58    34    59 1   
    59    35    60 1   
    60    36    37 1   
    61    36    38 1   
    62    36    39 1   
    63    37    61 1   
    64    37    62 1   
    65    37    63 1   
    66    38    64 1   
    67    38    65 1   
    68    38    66 1   
    69    39    67 1   
    70    39    68 1   
    71    39    69 1   
@<TRIPOS>SUBSTRUCTURE
     1 1NJ         1 TEMP              0 ****  ****    0 ROOT
