@<TRIPOS>MOLECULE
1NJ
   69    71     1     0     0
SMALL
No Charge or Current Charge


@<TRIPOS>ATOM
      1 O1          -1.2630     0.6380    -0.7040 o          1 1NJ      -0.561100
      2 C2          -2.2520    -0.0850    -0.5940 c          1 1NJ       0.540600
      3 N3          -3.5220     0.4210    -0.3370 ns         1 1NJ      -0.126000
      4 C5          -3.9950     1.7340    -0.0730 ca         1 1NJ       0.034000
      5 C6          -5.3830     1.9490    -0.1010 ca         1 1NJ      -0.170500
      6 C8          -5.9220     3.2210     0.1580 ca         1 1NJ      -0.049500
      7 C10         -5.0790     4.3180     0.4440 ca         1 1NJ      -0.204900
      8 C11         -5.6650     5.6620     0.7500 ce         1 1NJ       0.676800
      9 N12         -4.8860     6.7460     0.5650 nv         1 1NJ      -1.077200
     10 N15         -6.8810     5.8400     1.0610 n2         1 1NJ      -0.844100
     11 C17         -3.6840     4.0910     0.5050 ca         1 1NJ      -0.049500
     12 C19         -3.1490     2.8170     0.2460 ca         1 1NJ      -0.170500
     13 C21         -2.2420    -1.6120    -0.7810 ca         1 1NJ       0.382500
     14 N22         -3.4150    -2.2470    -1.1030 nb         1 1NJ      -0.781000
     15 C23         -3.3930    -3.5790    -1.3040 ca         1 1NJ       0.572300
     16 O24         -4.5530    -4.2390    -1.6290 os         1 1NJ      -0.471300
     17 C25         -5.8050    -3.5350    -1.7480 c3         1 1NJ       0.163900
     18 C29         -2.2170    -4.3320    -1.2070 ca         1 1NJ      -0.176000
     19 C31         -1.0120    -3.6990    -0.8720 ca         1 1NJ      -0.054000
     20 C33         -0.9930    -2.3050    -0.6350 cp         1 1NJ       0.009000
     21 C34          0.3120    -1.6780    -0.2410 cp         1 1NJ       0.004000
     22 C35          1.3620    -1.7000    -1.1890 ca         1 1NJ      -0.136000
     23 C37          2.6170    -1.1340    -0.9210 ca         1 1NJ      -0.115000
     24 C39          0.5830    -1.0720     1.0270 ca         1 1NJ      -0.106600
     25 C40         -0.4990    -1.0610     2.0970 c          1 1NJ       0.714600
     26 O41         -1.3310    -1.9560     2.1290 o          1 1NJ      -0.711000
     27 O43         -0.4560    -0.1760     2.9390 o          1 1NJ      -0.711000
     28 C44          1.8460    -0.4980     1.2910 ca         1 1NJ      -0.033000
     29 C46          2.8760    -0.5190     0.3250 ca         1 1NJ      -0.174600
     30 C47          4.2160     0.1050     0.6570 c          1 1NJ       0.618700
     31 O48          4.4460     0.6150     1.7460 o          1 1NJ      -0.618100
     32 N49          5.1670     0.0640    -0.3360 ns         1 1NJ      -0.508900
     33 C51          6.5290     0.6160    -0.2530 c3         1 1NJ       0.119700
     34 C53          6.7560     1.6150    -1.4350 c3         1 1NJ       0.146600
     35 O56          6.3410     1.0660    -2.7000 oh         1 1NJ      -0.665000
     36 C58          7.6170    -0.5150    -0.0650 c3         1 1NJ      -0.050000
     37 C59          9.0190     0.1140     0.1710 c3         1 1NJ      -0.081433
     38 C63          7.2710    -1.3720     1.1880 c3         1 1NJ      -0.081433
     39 C67          7.6930    -1.4640    -1.2950 c3         1 1NJ      -0.081433
     40 H1          -4.2460    -0.2870    -0.3390 hn         1 1NJ       0.178000
     41 H2          -6.0560     1.1250    -0.3290 ha         1 1NJ       0.133500
     42 H3          -7.0020     3.3520     0.1250 ha         1 1NJ       0.116000
     43 H4          -4.0480     6.5750     0.0220 hn         1 1NJ       0.454500
     44 H5          -5.3700     7.6100     0.3500 hn         1 1NJ       0.454500
     45 H6          -6.9850     6.8070     1.3870 hn         1 1NJ       0.355400
     46 H7          -3.0020     4.8960     0.7690 ha         1 1NJ       0.116000
     47 H8          -2.0740     2.6890     0.3160 ha         1 1NJ       0.133500
     48 H9          -6.0720    -3.0480    -0.8000 h1         1 1NJ       0.038700
     49 H10         -5.7500    -2.7670    -2.5310 h1         1 1NJ       0.038700
     50 H11         -6.6110    -4.2310    -2.0110 h1         1 1NJ       0.038700
     51 H12         -2.2480    -5.4030    -1.3840 ha         1 1NJ       0.123000
     52 H13         -0.0980    -4.2810    -0.7800 ha         1 1NJ       0.121000
     53 H14          1.1920    -2.1600    -2.1600 ha         1 1NJ       0.091000
     54 H15          3.3770    -1.1820    -1.6960 ha         1 1NJ       0.090000
     55 H17          2.0280    -0.0410     2.2610 ha         1 1NJ       0.156000
     56 H18          4.8830    -0.3310    -1.2220 hn         1 1NJ       0.326500
     57 H19          6.5810     1.2340     0.6540 h1         1 1NJ       0.078700
     58 H20          6.1630     2.5160    -1.2270 h1         1 1NJ       0.024700
     59 H21          7.8040     1.9330    -1.4760 h1         1 1NJ       0.024700
     60 H22          6.4870     1.7620    -3.3770 ho         1 1NJ       0.439000
     61 H23          8.9930     0.8340     0.9990 hc         1 1NJ       0.032811
     62 H24          9.7570    -0.6580     0.4220 hc         1 1NJ       0.032811
     63 H25          9.3880     0.6320    -0.7220 hc         1 1NJ       0.032811
     64 H26          6.3320    -1.9220     1.0540 hc         1 1NJ       0.032811
     65 H27          8.0560    -2.1130     1.3870 hc         1 1NJ       0.032811
     66 H28          7.1730    -0.7410     2.0790 hc         1 1NJ       0.032811
     67 H29          8.0400    -0.9340    -2.1890 hc         1 1NJ       0.032811
     68 H30          8.3980    -2.2840    -1.1090 hc         1 1NJ       0.032811
     69 H31          6.7160    -1.9090    -1.5170 hc         1 1NJ       0.032811
@<TRIPOS>BOND
     1     1     2 2   
     2     2     3 1   
     3     2    13 1   
     4     3     4 1   
     5     3    40 1   
     6     4     5 ar  
     7     4    12 ar  
     8     5     6 ar  
     9     5    41 1   
    10     6     7 ar  
    11     6    42 1   
    12     7     8 1   
    13     7    11 ar  
    14     8     9 1   
    15     8    10 2   
    16     9    43 1   
    17     9    44 1   
    18    10    45 1   
    19    11    12 ar  
    20    11    46 1   
    21    12    47 1   
    22    13    14 ar  
    23    13    20 ar  
    24    14    15 ar  
    25    15    16 1   
    26    15    18 ar  
    27    16    17 1   
    28    17    48 1   
    29    17    49 1   
    30    17    50 1   
    31    18    19 ar  
    32    18    51 1   
    33    19    20 ar  
    34    19    52 1   
    35    20    21 1   
    36    21    22 ar  
    37    21    24 ar  
    38    22    23 ar  
    39    22    53 1   
    40    23    29 ar  
    41    23    54 1   
    42    24    25 1   
    43    24    28 ar  
    44    25    26 1   
    45    25    27 1   
    46    28    29 ar  
    47    28    55 1   
    48    29    30 1   
    49    30    31 2   
    50    30    32 1   
    51    32    33 1   
    52    32    56 1   
    53    33    34 1   
    54    33    36 1   
    55    33    57 1   
    56    34    35 1   
    57    34    58 1   
    58    34    59 1   
    59    35    60 1   
    60    36    37 1   
    61    36    38 1   
    62    36    39 1   
    63    37    61 1   
    64    37    62 1   
    65    37    63 1   
    66    38    64 1   
    67    38    65 1   
    68    38    66 1   
    69    39    67 1   
    70    39    68 1   
    71    39    69 1   
@<TRIPOS>SUBSTRUCTURE
     1 1NJ         1 TEMP              0 ****  ****    0 ROOT
