@<TRIPOS>MOLECULE
1NK
   71    74     1     0     0
SMALL
No Charge or Current Charge


@<TRIPOS>ATOM
      1 C1           7.9090    -1.2160    -0.7840 c3         1 1NK      -0.081767
      2 C2           7.7340    -0.0310     0.2080 c3         1 1NK      -0.049000
      3 C3           7.4420    -0.6200     1.6190 c3         1 1NK      -0.081767
      4 C4           9.0760     0.7510     0.2960 c3         1 1NK      -0.081767
      5 C5           6.5590     0.9350    -0.2190 c3         1 1NK       0.118700
      6 C6           6.7230     1.6770    -1.5860 c3         1 1NK       0.145600
      7 O7           6.3900     0.8360    -2.7070 oh         1 1NK      -0.665000
      8 N8           5.2510     0.2590    -0.1880 ns         1 1NK      -0.508900
      9 C9           4.2780     0.4230     0.7710 c          1 1NK       0.618700
     10 O10          4.4400     1.1700     1.7270 o          1 1NK      -0.617100
     11 C11          3.0040    -0.3720     0.5740 ca         1 1NK      -0.174600
     12 C12          2.8270    -1.2560    -0.5150 ca         1 1NK      -0.114000
     13 C13          1.6300    -1.9740    -0.6620 ca         1 1NK      -0.135000
     14 C14          0.5620    -1.8470     0.2560 cp         1 1NK       0.003000
     15 C15          0.7530    -0.9660     1.3690 ca         1 1NK      -0.109600
     16 C16          1.9550    -0.2400     1.5100 ca         1 1NK      -0.032000
     17 C17         -0.3500    -0.8270     2.4070 c          1 1NK       0.715600
     18 O18         -0.4070     0.2190     3.0370 o          1 1NK      -0.712000
     19 O19         -1.0960    -1.7680     2.6310 o          1 1NK      -0.712000
     20 C20         -0.6760    -2.6530    -0.0010 cp         1 1NK       0.014000
     21 C21         -0.5730    -4.0620     0.0610 ca         1 1NK      -0.052000
     22 C22         -1.7140    -4.8530    -0.1360 ca         1 1NK      -0.173000
     23 C23         -2.9470    -4.2410    -0.3930 ca         1 1NK       0.572300
     24 N24         -3.0850    -2.9040    -0.4770 nb         1 1NK      -0.783000
     25 C25         -1.9760    -2.1170    -0.2930 ca         1 1NK       0.377500
     26 C26         -2.1180    -0.5910    -0.4320 c          1 1NK       0.537600
     27 O27         -1.1900     0.1740    -0.6910 o          1 1NK      -0.555100
     28 N28         -3.4290    -0.1520    -0.2850 ns         1 1NK      -0.130000
     29 C29         -4.0150     1.1420    -0.3040 ca         1 1NK       0.032000
     30 C30         -5.4200     1.2200    -0.3550 ca         1 1NK      -0.169000
     31 C31         -6.0750     2.4630    -0.3710 ca         1 1NK      -0.063000
     32 C32         -5.3220     3.6550    -0.3310 ca         1 1NK      -0.160000
     33 C33         -3.9190     3.5830    -0.2680 ca         1 1NK       0.049000
     34 C34         -3.2660     2.3380    -0.2530 ca         1 1NK      -0.156000
     35 C35         -3.1940     4.7840    -0.2200 ca         1 1NK      -0.197000
     36 C36         -3.8890     6.0050    -0.2400 ca         1 1NK       0.364900
     37 N37         -5.2370     6.0860    -0.3030 nb         1 1NK      -0.784000
     38 C38         -5.9050     4.9400    -0.3430 ca         1 1NK       0.620900
     39 N39         -7.2160     5.1980    -0.4160 nv         1 1NK      -1.064900
     40 O40         -4.0410    -5.0520    -0.5750 os         1 1NK      -0.470300
     41 C41         -5.3440    -4.5000    -0.8430 c3         1 1NK       0.163900
     42 H1           8.6780    -1.9120    -0.4260 hc         1 1NK       0.033033
     43 H2           6.9770    -1.7820    -0.8990 hc         1 1NK       0.033033
     44 H3           8.2230    -0.8670    -1.7740 hc         1 1NK       0.033033
     45 H4           8.2830    -1.2300     1.9730 hc         1 1NK       0.033033
     46 H5           7.2780     0.1810     2.3510 hc         1 1NK       0.033033
     47 H6           6.5540    -1.2620     1.6120 hc         1 1NK       0.033033
     48 H7           9.4140     1.0890    -0.6910 hc         1 1NK       0.033033
     49 H8           8.9760     1.6310     0.9440 hc         1 1NK       0.033033
     50 H9           9.8710     0.1190     0.7090 hc         1 1NK       0.033033
     51 H10          6.5370     1.7320     0.5360 h1         1 1NK       0.078700
     52 H11          6.0480     2.5430    -1.5770 h1         1 1NK       0.025200
     53 H12          7.7400     2.0750    -1.6890 h1         1 1NK       0.025200
     54 H13          6.4900     1.3840    -3.5160 ho         1 1NK       0.439000
     55 H14          5.0210    -0.3370    -0.9710 hn         1 1NK       0.325500
     56 H15          3.6050    -1.3990    -1.2600 ha         1 1NK       0.090000
     57 H16          1.5220    -2.6410    -1.5140 ha         1 1NK       0.091000
     58 H17          2.0760     0.4250     2.3620 ha         1 1NK       0.157000
     59 H19          0.3840    -4.5310     0.2760 ha         1 1NK       0.122000
     60 H20         -1.6520    -5.9360    -0.0830 ha         1 1NK       0.124000
     61 H21         -4.0910    -0.9040    -0.1360 hn         1 1NK       0.178000
     62 H22         -6.0120     0.3080    -0.3850 ha         1 1NK       0.109000
     63 H23         -7.1620     2.4890    -0.4100 ha         1 1NK       0.097000
     64 H24         -2.1830     2.3200    -0.1900 ha         1 1NK       0.160000
     65 H25         -2.1090     4.7830    -0.1700 ha         1 1NK       0.129000
     66 H26         -3.3480     6.9500    -0.2050 h4         1 1NK       0.005100
     67 H27         -7.8030     4.4850    -0.8310 hn         1 1NK       0.466000
     68 H28         -7.4430     6.1590    -0.6410 hn         1 1NK       0.466000
     69 H29         -5.3370    -3.9120    -1.7700 h1         1 1NK       0.038033
     70 H30         -6.0830    -5.3030    -0.9560 h1         1 1NK       0.038033
     71 H31         -5.6710    -3.8510    -0.0200 h1         1 1NK       0.038033
@<TRIPOS>BOND
     1     1     2 1   
     2     1    42 1   
     3     1    43 1   
     4     1    44 1   
     5     2     3 1   
     6     2     4 1   
     7     2     5 1   
     8     3    45 1   
     9     3    46 1   
    10     3    47 1   
    11     4    48 1   
    12     4    49 1   
    13     4    50 1   
    14     5     6 1   
    15     5     8 1   
    16     5    51 1   
    17     6     7 1   
    18     6    52 1   
    19     6    53 1   
    20     7    54 1   
    21     8     9 1   
    22     8    55 1   
    23     9    10 2   
    24     9    11 1   
    25    11    12 ar  
    26    11    16 ar  
    27    12    13 ar  
    28    12    56 1   
    29    13    14 ar  
    30    13    57 1   
    31    14    15 ar  
    32    14    20 1   
    33    15    16 ar  
    34    15    17 1   
    35    16    58 1   
    36    17    18 1   
    37    17    19 1   
    38    20    21 ar  
    39    20    25 ar  
    40    21    22 ar  
    41    21    59 1   
    42    22    23 ar  
    43    22    60 1   
    44    23    24 ar  
    45    23    40 1   
    46    24    25 ar  
    47    25    26 1   
    48    26    27 2   
    49    26    28 1   
    50    28    29 1   
    51    28    61 1   
    52    29    30 ar  
    53    29    34 ar  
    54    30    31 ar  
    55    30    62 1   
    56    31    32 ar  
    57    31    63 1   
    58    32    33 ar  
    59    32    38 ar  
    60    33    34 ar  
    61    33    35 ar  
    62    34    64 1   
    63    35    36 ar  
    64    35    65 1   
    65    36    37 ar  
    66    36    66 1   
    67    37    38 ar  
    68    38    39 1   
    69    39    67 1   
    70    39    68 1   
    71    40    41 1   
    72    41    69 1   
    73    41    70 1   
    74    41    71 1   
@<TRIPOS>SUBSTRUCTURE
     1 1NK         1 TEMP              0 ****  ****    0 ROOT
