@<TRIPOS>MOLECULE
1NK
   71    74     1     0     0
SMALL
bcc


@<TRIPOS>ATOM
      1 C1           7.3960    -0.7740    -1.5340 c3         1 1NK      -0.081767
      2 C2           7.5930    -0.1060    -0.1710 c3         1 1NK      -0.049000
      3 C3           7.6060    -1.1970     0.9050 c3         1 1NK      -0.081767
      4 C4           8.9440     0.6120    -0.1440 c3         1 1NK      -0.081767
      5 C5           6.4660     0.9000     0.1850 c3         1 1NK       0.118700
      6 C6           6.4120     2.2010    -0.6060 c3         1 1NK       0.122400
      7 O7           6.0210     1.9520    -1.9380 oh         1 1NK      -0.602800
      8 N8           5.1580     0.2770     0.1400 ns         1 1NK      -0.575900
      9 C9           4.4070    -0.0010     1.2200 c          1 1NK       0.685700
     10 O10          4.7480     0.2600     2.3670 o          1 1NK      -0.617100
     11 C11          3.0940    -0.6600     0.9410 ca         1 1NK      -0.174600
     12 C12          2.8740    -1.4660    -0.1720 ca         1 1NK      -0.132000
     13 C13          1.6410    -2.0680    -0.3500 ca         1 1NK      -0.153000
     14 C14          0.5980    -1.8780     0.5550 cp         1 1NK       0.003000
     15 C15          0.8110    -1.0780     1.6870 ca         1 1NK      -0.109600
     16 C16          2.0610    -0.4950     1.8570 ca         1 1NK      -0.050000
     17 C17         -0.2530    -0.8220     2.7560 c          1 1NK       0.926200
     18 O18          0.0550    -0.0180     3.6560 o          1 1NK      -0.817300
     19 O19         -1.3290    -1.4360     2.6460 o          1 1NK      -0.817300
     20 C20         -0.6560    -2.6220     0.2840 cp         1 1NK      -0.051300
     21 C21         -0.6310    -4.0180     0.3740 ca         1 1NK      -0.070000
     22 C22         -1.7620    -4.7680     0.1490 ca         1 1NK      -0.256300
     23 C23         -2.9370    -4.0830    -0.1710 ca         1 1NK       0.637600
     24 N24         -2.9710    -2.7770    -0.2860 nb         1 1NK      -0.783000
     25 C25         -1.8690    -2.0590    -0.0780 ca         1 1NK       0.442800
     26 C26         -2.0280    -0.5780    -0.2590 c          1 1NK       0.604600
     27 O27         -1.0770     0.1670    -0.3910 o          1 1NK      -0.555100
     28 N28         -3.3270    -0.1880    -0.2780 ns         1 1NK      -0.456100
     29 C29         -3.8600     1.0840    -0.4320 ca         1 1NK       0.124600
     30 C30         -5.2720     1.1530    -0.5210 ca         1 1NK      -0.187000
     31 C31         -5.9090     2.3520    -0.6660 ca         1 1NK      -0.081000
     32 C32         -5.1780     3.5550    -0.7340 ca         1 1NK      -0.225300
     33 C33         -3.7710     3.4920    -0.6300 ca         1 1NK       0.049000
     34 C34         -3.1240     2.2480    -0.4850 ca         1 1NK      -0.174000
     35 C35         -3.0430     4.7080    -0.6650 ca         1 1NK      -0.280300
     36 C36         -3.7360     5.8740    -0.7960 ca         1 1NK       0.430200
     37 N37         -5.0770     5.9570    -0.9130 nb         1 1NK      -0.784000
     38 C38         -5.7830     4.8480    -0.8900 ca         1 1NK       0.686200
     39 N39         -7.1340     4.9720    -0.9760 nv         1 1NK      -0.954500
     40 O40         -4.0450    -4.7990    -0.3650 os         1 1NK      -0.447100
     41 C41         -5.2430    -4.1040    -0.6820 c3         1 1NK       0.140700
     42 H1           8.1740    -1.5240    -1.6920 hc         1 1NK       0.033033
     43 H2           6.4380    -1.2940    -1.5940 hc         1 1NK       0.033033
     44 H3           7.4460    -0.0630    -2.3560 hc         1 1NK       0.033033
     45 H4           8.4390    -1.8820     0.7350 hc         1 1NK       0.033033
     46 H5           7.7220    -0.7740     1.9050 hc         1 1NK       0.033033
     47 H6           6.6910    -1.7890     0.8950 hc         1 1NK       0.033033
     48 H7           9.0530     1.3250    -0.9620 hc         1 1NK       0.033033
     49 H8           9.0920     1.1510     0.7950 hc         1 1NK       0.033033
     50 H9           9.7550    -0.1130    -0.2370 hc         1 1NK       0.033033
     51 H10          6.6390     1.2020     1.2210 h1         1 1NK       0.078700
     52 H11          5.6930     2.8580    -0.1020 h1         1 1NK       0.025200
     53 H12          7.3840     2.7050    -0.5550 h1         1 1NK       0.025200
     54 H13          5.7740     2.7900    -2.3410 ho         1 1NK       0.400000
     55 H14          4.7440     0.1710    -0.7720 hn         1 1NK       0.325500
     56 H15          3.6570    -1.6610    -0.8940 ha         1 1NK       0.108000
     57 H16          1.4840    -2.7010    -1.2140 ha         1 1NK       0.109000
     58 H17          2.2260     0.1150     2.7350 ha         1 1NK       0.175000
     59 H19          0.2910    -4.5150     0.6460 ha         1 1NK       0.140000
     60 H20         -1.7500    -5.8470     0.2260 ha         1 1NK       0.142000
     61 H21         -3.9880    -0.9540    -0.2250 hn         1 1NK       0.344500
     62 H22         -5.8570     0.2420    -0.4700 ha         1 1NK       0.127000
     63 H23         -6.9890     2.3490    -0.7170 ha         1 1NK       0.115000
     64 H24         -2.0480     2.2340    -0.4130 ha         1 1NK       0.178000
     65 H25         -1.9640     4.7070    -0.5880 ha         1 1NK       0.147000
     66 H26         -3.2080     6.8210    -0.8180 h4         1 1NK       0.005100
     67 H27         -7.6840     4.2020    -1.3140 hn         1 1NK       0.410800
     68 H28         -7.4730     5.8750    -1.2640 hn         1 1NK       0.410800
     69 H29         -5.1590    -3.5610    -1.6240 h1         1 1NK       0.038033
     70 H30         -6.0140    -4.8640    -0.7740 h1         1 1NK       0.038033
     71 H31         -5.5250    -3.4010     0.1040 h1         1 1NK       0.038033
@<TRIPOS>BOND
     1     1     2 1   
     2     1    42 1   
     3     1    43 1   
     4     1    44 1   
     5     2     3 1   
     6     2     4 1   
     7     2     5 1   
     8     3    45 1   
     9     3    46 1   
    10     3    47 1   
    11     4    48 1   
    12     4    49 1   
    13     4    50 1   
    14     5     6 1   
    15     5     8 1   
    16     5    51 1   
    17     6     7 1   
    18     6    52 1   
    19     6    53 1   
    20     7    54 1   
    21     8     9 1   
    22     8    55 1   
    23     9    10 2   
    24     9    11 1   
    25    11    12 ar  
    26    11    16 ar  
    27    12    13 ar  
    28    12    56 1   
    29    13    14 ar  
    30    13    57 1   
    31    14    15 ar  
    32    14    20 1   
    33    15    16 ar  
    34    15    17 1   
    35    16    58 1   
    36    17    18 1   
    37    17    19 1   
    38    20    21 ar  
    39    20    25 ar  
    40    21    22 ar  
    41    21    59 1   
    42    22    23 ar  
    43    22    60 1   
    44    23    24 ar  
    45    23    40 1   
    46    24    25 ar  
    47    25    26 1   
    48    26    27 2   
    49    26    28 1   
    50    28    29 1   
    51    28    61 1   
    52    29    30 ar  
    53    29    34 ar  
    54    30    31 ar  
    55    30    62 1   
    56    31    32 ar  
    57    31    63 1   
    58    32    33 ar  
    59    32    38 ar  
    60    33    34 ar  
    61    33    35 ar  
    62    34    64 1   
    63    35    36 ar  
    64    35    65 1   
    65    36    37 ar  
    66    36    66 1   
    67    37    38 ar  
    68    38    39 1   
    69    39    67 1   
    70    39    68 1   
    71    40    41 1   
    72    41    69 1   
    73    41    70 1   
    74    41    71 1   
@<TRIPOS>SUBSTRUCTURE
     1 1NK         1 TEMP              0 ****  ****    0 ROOT
