@<TRIPOS>MOLECULE
1NL
   68    70     1     0     0
SMALL
No Charge or Current Charge


@<TRIPOS>ATOM
      1 C1           7.1330    -2.4170    -1.3610 c3         1 1NL      -0.082100
      2 C2           7.2210    -1.4390    -0.1550 c3         1 1NL      -0.046000
      3 C3           6.7970    -2.2120     1.1280 c3         1 1NL      -0.082100
      4 C4           8.7030    -1.0030     0.0300 c3         1 1NL      -0.082100
      5 C5           6.2940    -0.1740    -0.3440 c3         1 1NL       0.118700
      6 C6           6.6280     0.7660    -1.5490 c3         1 1NL       0.143600
      7 O7           6.1220     0.2540    -2.7960 oh         1 1NL      -0.663000
      8 N8           4.8680    -0.5370    -0.3940 ns         1 1NL      -0.504900
      9 C9           3.9510    -0.3530     0.6150 c          1 1NL       0.618700
     10 O10          4.2690     0.1390     1.6900 o          1 1NL      -0.620100
     11 C11          2.5320    -0.7950     0.3180 ca         1 1NL      -0.172600
     12 C12          2.1690    -1.3890    -0.9120 ca         1 1NL      -0.114000
     13 C13          0.8440    -1.7850    -1.1490 ca         1 1NL      -0.134000
     14 C14         -0.1750    -1.6070    -0.1830 cp         1 1NL       0.001000
     15 C15          0.2000    -1.0220     1.0690 ca         1 1NL      -0.104600
     16 C16          1.5340    -0.6200     1.3000 ca         1 1NL      -0.032000
     17 C17         -0.8500    -0.8490     2.1560 c          1 1NL       0.715600
     18 O18         -1.7860    -1.6310     2.2260 o          1 1NL      -0.712500
     19 O19         -0.6790     0.0440     2.9720 o          1 1NL      -0.712500
     20 C20         -1.5600    -2.0550    -0.5420 cp         1 1NL       0.012000
     21 C21         -1.7740    -3.4370    -0.7540 ca         1 1NL      -0.053000
     22 C22         -3.0620    -3.9050    -1.0540 ca         1 1NL      -0.175000
     23 C23         -4.1250    -2.9990    -1.1420 ca         1 1NL       0.572300
     24 N24         -3.9620    -1.6740    -0.9650 nb         1 1NL      -0.783000
     25 C25         -2.7060    -1.2010    -0.6770 ca         1 1NL       0.380500
     26 C26         -2.5040     0.3160    -0.5170 c          1 1NL       0.533600
     27 O27         -1.4280     0.8930    -0.6620 o          1 1NL      -0.548100
     28 N28         -3.6850     0.9970    -0.2400 ns         1 1NL      -0.132000
     29 C29         -3.9710     2.3680     0.0040 ca         1 1NL       0.011000
     30 C30         -5.3230     2.7470     0.0470 ca         1 1NL      -0.160000
     31 C31         -5.6830     4.0810     0.2870 ca         1 1NL      -0.097000
     32 C32         -4.6930     5.0530     0.4930 ca         1 1NL      -0.140000
     33 C33         -3.3230     4.6990     0.4650 ca         1 1NL      -0.124600
     34 C34         -2.9760     3.3490     0.2210 ca         1 1NL      -0.085000
     35 C35         -2.2270     5.7230     0.6910 c          1 1NL       0.616700
     36 O36         -1.0400     5.4380     0.6690 o          1 1NL      -0.598100
     37 N37         -2.5870     7.0040     0.9260 nt         1 1NL      -0.612000
     38 O38         -5.3720    -3.4990    -1.4330 os         1 1NL      -0.471300
     39 C39         -6.5180    -2.6320    -1.5400 c3         1 1NL       0.163900
     40 H1           6.0990    -2.7290    -1.5470 hc         1 1NL       0.032700
     41 H2           7.5230    -1.9580    -2.2770 hc         1 1NL       0.032700
     42 H3           7.7260    -3.3200    -1.1720 hc         1 1NL       0.032700
     43 H4           7.4780    -3.0490     1.3260 hc         1 1NL       0.032700
     44 H5           6.8120    -1.5540     2.0050 hc         1 1NL       0.032700
     45 H6           5.7870    -2.6290     1.0320 hc         1 1NL       0.032700
     46 H7           9.1140    -0.5630    -0.8850 hc         1 1NL       0.032700
     47 H8           8.7980    -0.2670     0.8380 hc         1 1NL       0.032700
     48 H9           9.3340    -1.8630     0.2850 hc         1 1NL       0.032700
     49 H10          6.4460     0.4460     0.5500 h1         1 1NL       0.077700
     50 H11          6.1620     1.7410    -1.3490 h1         1 1NL       0.025700
     51 H12          7.7080     0.9430    -1.6120 h1         1 1NL       0.025700
     52 H13          6.3460     0.9130    -3.4900 ho         1 1NL       0.439000
     53 H14          4.5160    -0.9040    -1.2670 hn         1 1NL       0.324500
     54 H15          2.9000    -1.5520    -1.6990 ha         1 1NL       0.090000
     55 H16          0.5940    -2.2330    -2.1080 ha         1 1NL       0.091000
     56 H17          1.7940    -0.1760     2.2590 ha         1 1NL       0.153000
     57 H19         -0.9460    -4.1370    -0.6690 ha         1 1NL       0.121000
     58 H20         -3.2420    -4.9640    -1.2110 ha         1 1NL       0.123000
     59 H21         -4.4980     0.3930    -0.2070 hn         1 1NL       0.177000
     60 H22         -6.1030     2.0050    -0.1110 ha         1 1NL       0.109000
     61 H23         -6.7340     4.3630     0.3140 ha         1 1NL       0.101000
     62 H24         -5.0060     6.0780     0.6760 ha         1 1NL       0.096000
     63 H25         -1.9250     3.0770     0.2150 ha         1 1NL       0.176000
     64 H26         -3.5620     7.2580     0.9490 hn         1 1NL       0.307000
     65 H27         -1.8700     7.6970     1.0790 hn         1 1NL       0.307000
     66 H28         -7.4170    -3.2160    -1.7760 h1         1 1NL       0.038033
     67 H29         -6.6960    -2.1000    -0.5970 h1         1 1NL       0.038033
     68 H30         -6.3750    -1.8920    -2.3380 h1         1 1NL       0.038033
@<TRIPOS>BOND
     1     1     2 1   
     2     1    40 1   
     3     1    41 1   
     4     1    42 1   
     5     2     3 1   
     6     2     4 1   
     7     2     5 1   
     8     3    43 1   
     9     3    44 1   
    10     3    45 1   
    11     4    46 1   
    12     4    47 1   
    13     4    48 1   
    14     5     6 1   
    15     5     8 1   
    16     5    49 1   
    17     6     7 1   
    18     6    50 1   
    19     6    51 1   
    20     7    52 1   
    21     8     9 1   
    22     8    53 1   
    23     9    10 2   
    24     9    11 1   
    25    11    12 ar  
    26    11    16 ar  
    27    12    13 ar  
    28    12    54 1   
    29    13    14 ar  
    30    13    55 1   
    31    14    15 ar  
    32    14    20 1   
    33    15    16 ar  
    34    15    17 1   
    35    16    56 1   
    36    17    18 1   
    37    17    19 1   
    38    20    21 ar  
    39    20    25 ar  
    40    21    22 ar  
    41    21    57 1   
    42    22    23 ar  
    43    22    58 1   
    44    23    24 ar  
    45    23    38 1   
    46    24    25 ar  
    47    25    26 1   
    48    26    27 2   
    49    26    28 1   
    50    28    29 1   
    51    28    59 1   
    52    29    30 ar  
    53    29    34 ar  
    54    30    31 ar  
    55    30    60 1   
    56    31    32 ar  
    57    31    61 1   
    58    32    33 ar  
    59    32    62 1   
    60    33    34 ar  
    61    33    35 1   
    62    34    63 1   
    63    35    36 2   
    64    35    37 1   
    65    37    64 1   
    66    37    65 1   
    67    38    39 1   
    68    39    66 1   
    69    39    67 1   
    70    39    68 1   
@<TRIPOS>SUBSTRUCTURE
     1 1NL         1 TEMP              0 ****  ****    0 ROOT
