@<TRIPOS>MOLECULE
1NL
   68    70     1     0     0
SMALL
abcg2


@<TRIPOS>ATOM
      1 C1           6.6830    -1.1840    -2.1710 c3         1 1NL      -0.082100
      2 C2           7.0560    -1.3560    -0.6960 c3         1 1NL      -0.046000
      3 C3           6.8300    -2.8200    -0.3030 c3         1 1NL      -0.082100
      4 C4           8.5400    -1.0290    -0.5160 c3         1 1NL      -0.082100
      5 C5           6.2180    -0.4700     0.2630 c3         1 1NL       0.118700
      6 C6           6.4860     1.0300     0.2460 c3         1 1NL       0.143600
      7 O7           6.0740     1.5940    -0.9770 oh         1 1NL      -0.663000
      8 N8           4.7990    -0.7210     0.1000 ns         1 1NL      -0.504900
      9 C9           3.9620    -0.9790     1.1200 c          1 1NL       0.618700
     10 O10          4.3160    -1.0200     2.2910 o          1 1NL      -0.620100
     11 C11          2.5390    -1.2270     0.7400 ca         1 1NL      -0.172600
     12 C12          2.1790    -1.8420    -0.4540 ca         1 1NL      -0.114000
     13 C13          0.8430    -2.0930    -0.7180 ca         1 1NL      -0.134000
     14 C14         -0.1590    -1.7320     0.1810 cp         1 1NL       0.001000
     15 C15          0.1930    -1.1020     1.3840 ca         1 1NL      -0.104600
     16 C16          1.5390    -0.8720     1.6390 ca         1 1NL      -0.032000
     17 C17         -0.8220    -0.6680     2.4410 c          1 1NL       0.715600
     18 O18         -1.9640    -1.1550     2.3670 o          1 1NL      -0.712500
     19 O19         -0.4080     0.1320     3.3000 o          1 1NL      -0.712500
     20 C20         -1.5450    -2.1150    -0.1780 cp         1 1NL       0.012000
     21 C21         -1.8390    -3.4780    -0.3080 ca         1 1NL      -0.053000
     22 C22         -3.1100    -3.9120    -0.6040 ca         1 1NL      -0.175000
     23 C23         -4.1010    -2.9390    -0.7640 ca         1 1NL       0.572300
     24 N24         -3.8370    -1.6570    -0.6760 nb         1 1NL      -0.783000
     25 C25         -2.5990    -1.2440    -0.4060 ca         1 1NL       0.380500
     26 C26         -2.4200     0.2470    -0.3810 c          1 1NL       0.533600
     27 O27         -1.3240     0.7700    -0.4450 o          1 1NL      -0.548100
     28 N28         -3.5980     0.9110    -0.3120 ns         1 1NL      -0.132000
     29 C29         -3.8480     2.2800    -0.3010 ca         1 1NL       0.011000
     30 C30         -5.1850     2.6710    -0.1750 ca         1 1NL      -0.160000
     31 C31         -5.5260     4.0100    -0.1660 ca         1 1NL      -0.097000
     32 C32         -4.5470     4.9870    -0.2740 ca         1 1NL      -0.140000
     33 C33         -3.2140     4.6080    -0.3970 ca         1 1NL      -0.124600
     34 C34         -2.8650     3.2600    -0.4200 ca         1 1NL      -0.085000
     35 C35         -2.1030     5.6030    -0.5520 c          1 1NL       0.616700
     36 O36         -1.0190     5.2700    -1.0130 o          1 1NL      -0.598100
     37 N37         -2.3670     6.8590    -0.1660 nt         1 1NL      -0.612000
     38 O38         -5.3440    -3.3480    -1.0180 os         1 1NL      -0.471300
     39 C39         -6.3620    -2.3630    -1.1250 c3         1 1NL       0.163900
     40 H1           5.6360    -1.4280    -2.3640 hc         1 1NL       0.032700
     41 H2           6.8660    -0.1730    -2.5300 hc         1 1NL       0.032700
     42 H3           7.2780    -1.8670    -2.7810 hc         1 1NL       0.032700
     43 H4           7.4430    -3.4800    -0.9190 hc         1 1NL       0.032700
     44 H5           7.0980    -2.9970     0.7410 hc         1 1NL       0.032700
     45 H6           5.7890    -3.1200    -0.4370 hc         1 1NL       0.032700
     46 H7           8.7910    -0.0370    -0.8940 hc         1 1NL       0.032700
     47 H8           8.8380    -1.0740     0.5350 hc         1 1NL       0.032700
     48 H9           9.1530    -1.7480    -1.0620 hc         1 1NL       0.032700
     49 H10          6.4740    -0.7930     1.2740 h1         1 1NL       0.077700
     50 H11          5.9330     1.4650     1.0890 h1         1 1NL       0.025700
     51 H12          7.5480     1.2110     0.4450 h1         1 1NL       0.025700
     52 H13          6.1160     2.5510    -0.8950 ho         1 1NL       0.439000
     53 H14          4.3960    -0.5220    -0.8020 hn         1 1NL       0.324500
     54 H15          2.9260    -2.1590    -1.1720 ha         1 1NL       0.090000
     55 H16          0.5710    -2.5800    -1.6470 ha         1 1NL       0.091000
     56 H17          1.8120    -0.3940     2.5700 ha         1 1NL       0.153000
     57 H19         -1.0530    -4.2060    -0.1530 ha         1 1NL       0.121000
     58 H20         -3.3420    -4.9640    -0.6960 ha         1 1NL       0.123000
     59 H21         -4.4070     0.3040    -0.3060 hn         1 1NL       0.177000
     60 H22         -5.9610     1.9200    -0.0950 ha         1 1NL       0.109000
     61 H23         -6.5660     4.2930    -0.0790 ha         1 1NL       0.101000
     62 H24         -4.8470     6.0270    -0.2850 ha         1 1NL       0.096000
     63 H25         -1.8290     2.9870    -0.5290 ha         1 1NL       0.176000
     64 H26         -3.2120     7.1200     0.3110 hn         1 1NL       0.307000
     65 H27         -1.6580     7.5680    -0.2580 hn         1 1NL       0.307000
     66 H28         -7.2830    -2.9060    -1.3210 h1         1 1NL       0.038033
     67 H29         -6.4710    -1.7940    -0.2010 h1         1 1NL       0.038033
     68 H30         -6.1720    -1.6690    -1.9450 h1         1 1NL       0.038033
@<TRIPOS>BOND
     1     1     2 1   
     2     1    40 1   
     3     1    41 1   
     4     1    42 1   
     5     2     3 1   
     6     2     4 1   
     7     2     5 1   
     8     3    43 1   
     9     3    44 1   
    10     3    45 1   
    11     4    46 1   
    12     4    47 1   
    13     4    48 1   
    14     5     6 1   
    15     5     8 1   
    16     5    49 1   
    17     6     7 1   
    18     6    50 1   
    19     6    51 1   
    20     7    52 1   
    21     8     9 1   
    22     8    53 1   
    23     9    10 2   
    24     9    11 1   
    25    11    12 ar  
    26    11    16 ar  
    27    12    13 ar  
    28    12    54 1   
    29    13    14 ar  
    30    13    55 1   
    31    14    15 ar  
    32    14    20 1   
    33    15    16 ar  
    34    15    17 1   
    35    16    56 1   
    36    17    18 1   
    37    17    19 1   
    38    20    21 ar  
    39    20    25 ar  
    40    21    22 ar  
    41    21    57 1   
    42    22    23 ar  
    43    22    58 1   
    44    23    24 ar  
    45    23    38 1   
    46    24    25 ar  
    47    25    26 1   
    48    26    27 2   
    49    26    28 1   
    50    28    29 1   
    51    28    59 1   
    52    29    30 ar  
    53    29    34 ar  
    54    30    31 ar  
    55    30    60 1   
    56    31    32 ar  
    57    31    61 1   
    58    32    33 ar  
    59    32    62 1   
    60    33    34 ar  
    61    33    35 1   
    62    34    63 1   
    63    35    36 2   
    64    35    37 1   
    65    37    64 1   
    66    37    65 1   
    67    38    39 1   
    68    39    66 1   
    69    39    67 1   
    70    39    68 1   
@<TRIPOS>SUBSTRUCTURE
     1 1NL         1 TEMP              0 ****  ****    0 ROOT
