@<TRIPOS>MOLECULE
1NM
   45    47     1     0     0
SMALL
bcc


@<TRIPOS>ATOM
      1 FAD         -8.1250     1.0830     0.2580 f          1 1NM      -0.239300
      2 CAJ         -7.3730     1.5170    -0.8280 c3         1 1NM       0.169900
      3 CAK         -5.9080     1.3200    -0.5650 c3         1 1NM       0.101400
      4 OAQ         -5.6480    -0.0680    -0.4880 os         1 1NM      -0.294900
      5 CAZ         -4.3960    -0.4710    -0.2100 ca         1 1NM       0.109100
      6 CAI         -3.3120     0.3690    -0.0430 ca         1 1NM      -0.175000
      7 CAY         -4.2220    -1.8680    -0.0960 ca         1 1NM       0.133100
      8 OAP         -5.3250    -2.6050    -0.2770 os         1 1NM      -0.293900
      9 CAA         -5.2200    -4.0120    -0.1630 c3         1 1NM       0.121700
     10 CAF         -2.9620    -2.3720     0.1860 ca         1 1NM      -0.201000
     11 CAE         -1.8790    -1.5180     0.3580 ca         1 1NM      -0.072000
     12 CAW         -2.0410    -0.1450     0.2470 ca         1 1NM      -0.142500
     13 CBA         -0.8930     0.7380     0.4340 cc         1 1NM       0.510900
     14 NAO          0.3280     0.3260     0.5800 nd         1 1NM      -0.637000
     15 SAS         -1.0520     2.4660     0.5000 ss         1 1NM      -0.181300
     16 CAG          0.6380     2.5980     0.7300 cc         1 1NM      -0.195400
     17 CAV          1.2000     1.3600     0.7520 cd         1 1NM       0.361600
     18 CAL          2.6530     1.0780     0.9280 c3         1 1NM      -0.026600
     19 SAR          3.3100     0.5020    -0.6690 ss         1 1NM      -0.253400
     20 C2           4.9520     0.0190    -0.2550 ca         1 1NM       0.836300
     21 N3           5.6170    -0.4630    -1.2890 nb         1 1NM      -0.820500
     22 N1           5.3590     0.1680     0.9850 nb         1 1NM      -0.820500
     23 C6           6.6220    -0.2290     1.2390 ca         1 1NM       0.740200
     24 NAB          7.0620    -0.0520     2.4990 nv         1 1NM      -0.956500
     25 C5           7.4300    -0.7620     0.2390 ca         1 1NM      -0.534600
     26 C4           6.8750    -0.8590    -1.0380 ca         1 1NM       0.740200
     27 NAC          7.5820    -1.3260    -2.0860 nv         1 1NM      -0.956500
     28 H1          -7.6950     0.9660    -1.7120 h1         1 1NM       0.053700
     29 H2          -7.5640     2.5790    -0.9850 h1         1 1NM       0.053700
     30 H3          -5.3500     1.7820    -1.3880 h1         1 1NM       0.044200
     31 H4          -5.6160     1.8250     0.3620 h1         1 1NM       0.044200
     32 H5          -3.4460     1.4380    -0.1470 ha         1 1NM       0.136000
     33 H6          -4.5360    -4.4300    -0.9060 h1         1 1NM       0.042367
     34 H7          -4.8900    -4.3150     0.8330 h1         1 1NM       0.042367
     35 H8          -6.2160    -4.4090    -0.3410 h1         1 1NM       0.042367
     36 H9          -2.8020    -3.4370     0.2800 ha         1 1NM       0.142000
     37 H10         -0.9070    -1.9330     0.5870 ha         1 1NM       0.158000
     38 H11          1.1220     3.5550     0.8370 h4         1 1NM       0.182000
     39 H12          3.1860     1.9720     1.2440 h1         1 1NM       0.086700
     40 H13          2.8070     0.2990     1.6730 h1         1 1NM       0.086700
     41 H14          7.9120    -0.4990     2.7960 hn         1 1NM       0.430550
     42 H15          6.3850     0.1440     3.2170 hn         1 1NM       0.430550
     43 H16          8.4420    -1.0870     0.4420 ha         1 1NM       0.142000
     44 H17          8.4410    -1.8220    -1.9220 hn         1 1NM       0.430550
     45 H18          7.0860    -1.5620    -2.9290 hn         1 1NM       0.430550
@<TRIPOS>BOND
     1     1     2 1   
     2     2     3 1   
     3     2    28 1   
     4     2    29 1   
     5     3     4 1   
     6     3    30 1   
     7     3    31 1   
     8     4     5 1   
     9     5     6 ar  
    10     5     7 ar  
    11     6    12 ar  
    12     6    32 1   
    13     7     8 1   
    14     7    10 ar  
    15     8     9 1   
    16     9    33 1   
    17     9    34 1   
    18     9    35 1   
    19    10    11 ar  
    20    10    36 1   
    21    11    12 ar  
    22    11    37 1   
    23    12    13 1   
    24    13    14 2   
    25    13    15 1   
    26    14    17 1   
    27    15    16 1   
    28    16    17 2   
    29    16    38 1   
    30    17    18 1   
    31    18    19 1   
    32    18    39 1   
    33    18    40 1   
    34    19    20 1   
    35    20    21 ar  
    36    20    22 ar  
    37    21    26 ar  
    38    22    23 ar  
    39    23    24 1   
    40    23    25 ar  
    41    24    41 1   
    42    24    42 1   
    43    25    26 ar  
    44    25    43 1   
    45    26    27 1   
    46    27    44 1   
    47    27    45 1   
@<TRIPOS>SUBSTRUCTURE
     1 1NM         1 TEMP              0 ****  ****    0 ROOT
