@<TRIPOS>MOLECULE
1NM
   45    47     1     0     0
SMALL
No Charge or Current Charge


@<TRIPOS>ATOM
      1 FAD         -8.2580     1.5590     0.2630 f          1 1NM      -0.258000
      2 CAJ         -7.5500     1.7780    -0.8760 c3         1 1NM       0.188600
      3 CAK         -6.0490     1.5010    -0.6490 c3         1 1NM       0.124600
      4 OAQ         -5.8760     0.1000    -0.3530 os         1 1NM      -0.318100
      5 CAZ         -4.6370    -0.4660    -0.1010 ca         1 1NM       0.109100
      6 CAI         -3.4490     0.3030    -0.1150 ca         1 1NM      -0.157000
      7 CAY         -4.5740    -1.8500     0.1760 ca         1 1NM       0.133100
      8 OAP         -5.7510    -2.5820     0.1840 os         1 1NM      -0.317100
      9 CAA         -5.7820    -3.9940     0.4560 c3         1 1NM       0.144900
     10 CAF         -3.3240    -2.4500     0.4370 ca         1 1NM      -0.183000
     11 CAE         -2.1500    -1.6790     0.4210 ca         1 1NM      -0.054000
     12 CAW         -2.1910    -0.2940     0.1460 ca         1 1NM      -0.142500
     13 CBA         -0.9430     0.4990     0.1350 cc         1 1NM       0.510900
     14 NAO          0.2480    -0.0380     0.3840 nd         1 1NM      -0.637000
     15 SAS         -0.9330     2.2170    -0.2070 ss         1 1NM      -0.036400
     16 CAG          0.7920     2.1920     0.0030 cc         1 1NM      -0.257000
     17 CAV          1.2400     0.9290     0.3050 cd         1 1NM       0.296300
     18 CAL          2.6790     0.5530     0.5480 c3         1 1NM       0.021300
     19 SAR          3.7630     0.7300    -0.9470 ss         1 1NM      -0.301300
     20 C2           5.3880     0.2360    -0.3800 ca         1 1NM       0.310300
     21 N3           6.3730     0.2650    -1.3010 nb         1 1NM      -0.294500
     22 N1           5.5300    -0.1290     0.9120 nb         1 1NM      -0.294500
     23 C6           6.7580    -0.4890     1.2940 ca         1 1NM       0.411900
     24 NAB          6.8990    -0.8560     2.5870 nv         1 1NM      -1.066900
     25 C5           7.8420    -0.4970     0.4260 ca         1 1NM      -0.386000
     26 C4           7.5870    -0.1020    -0.8810 ca         1 1NM       0.411900
     27 NAC          8.5740    -0.0740    -1.8040 nv         1 1NM      -1.066900
     28 H1          -7.9390     1.1270    -1.6680 h1         1 1NM       0.053700
     29 H2          -7.6920     2.8230    -1.1780 h1         1 1NM       0.053700
     30 H3          -5.4960     1.7730    -1.5580 h1         1 1NM       0.044200
     31 H4          -5.6880     2.1240     0.1790 h1         1 1NM       0.044200
     32 H5          -3.5010     1.3660    -0.3280 ha         1 1NM       0.118000
     33 H6          -5.1880    -4.5470    -0.2830 h1         1 1NM       0.042367
     34 H7          -5.3880    -4.2070     1.4580 h1         1 1NM       0.042367
     35 H8          -6.8130    -4.3660     0.4100 h1         1 1NM       0.042367
     36 H9          -3.2400    -3.5110     0.6530 ha         1 1NM       0.124000
     37 H10         -1.2010    -2.1730     0.6260 ha         1 1NM       0.140000
     38 H11          1.3670     3.1010    -0.1140 h4         1 1NM       0.164000
     39 H12          3.0730     1.1910     1.3490 h1         1 1NM       0.086700
     40 H13          2.7220    -0.4870     0.8940 h1         1 1NM       0.086700
     41 H14          7.7450    -1.3480     2.8640 hn         1 1NM       0.485750
     42 H15          6.0620    -1.0380     3.1340 hn         1 1NM       0.485750
     43 H16          8.8350    -0.7900     0.7520 ha         1 1NM       0.124000
     44 H17          9.4460    -0.5560    -1.6000 hn         1 1NM       0.485750
     45 H18          8.3180     0.0160    -2.7850 hn         1 1NM       0.485750
@<TRIPOS>BOND
     1     1     2 1   
     2     2     3 1   
     3     2    28 1   
     4     2    29 1   
     5     3     4 1   
     6     3    30 1   
     7     3    31 1   
     8     4     5 1   
     9     5     6 ar  
    10     5     7 ar  
    11     6    12 ar  
    12     6    32 1   
    13     7     8 1   
    14     7    10 ar  
    15     8     9 1   
    16     9    33 1   
    17     9    34 1   
    18     9    35 1   
    19    10    11 ar  
    20    10    36 1   
    21    11    12 ar  
    22    11    37 1   
    23    12    13 1   
    24    13    14 2   
    25    13    15 1   
    26    14    17 1   
    27    15    16 1   
    28    16    17 2   
    29    16    38 1   
    30    17    18 1   
    31    18    19 1   
    32    18    39 1   
    33    18    40 1   
    34    19    20 1   
    35    20    21 ar  
    36    20    22 ar  
    37    21    26 ar  
    38    22    23 ar  
    39    23    24 1   
    40    23    25 ar  
    41    24    41 1   
    42    24    42 1   
    43    25    26 ar  
    44    25    43 1   
    45    26    27 1   
    46    27    44 1   
    47    27    45 1   
@<TRIPOS>SUBSTRUCTURE
     1 1NM         1 TEMP              0 ****  ****    0 ROOT
