@<TRIPOS>MOLECULE
1NN
   51    53     1     0     0
SMALL
abcg2


@<TRIPOS>ATOM
      1 FAE          5.1610    -4.3540     1.4040 f          1 1NN      -0.260000
      2 CAJ          4.2140    -4.3280     0.3860 c3         1 1NN       0.187600
      3 CAL          3.5530    -2.9820     0.3160 c3         1 1NN       0.123600
      4 OAR          4.5220    -2.0280    -0.0700 os         1 1NN      -0.320100
      5 CAZ          4.1560    -0.7360    -0.1480 ca         1 1NN       0.107100
      6 CAI          2.8710    -0.2660     0.0300 ca         1 1NN      -0.131000
      7 CAY          5.2010     0.1700    -0.4430 ca         1 1NN       0.131100
      8 OAQ          6.4130    -0.3790    -0.6040 os         1 1NN      -0.315100
      9 CAB          7.5000     0.4730    -0.9100 c3         1 1NN       0.144900
     10 CAG          4.9150     1.5210    -0.5420 ca         1 1NN      -0.179000
     11 CAF          3.6170     1.9850    -0.3570 ca         1 1NN      -0.090000
     12 CAW          2.5860     1.1040    -0.0730 ca         1 1NN      -0.136500
     13 CBC          1.2100     1.5530     0.1150 cc         1 1NN       0.505900
     14 NAP          0.2100     0.7620     0.3460 nd         1 1NN      -0.640000
     15 SAT          0.7590     3.2260     0.0400 ss         1 1NN      -0.035400
     16 CBB         -0.8830     2.7980     0.3330 cc         1 1NN      -0.204300
     17 CAK         -1.9610     3.8260     0.4420 c3         1 1NN      -0.006100
     18 CAA         -2.0690     4.4150     1.8470 c3         1 1NN      -0.088100
     19 CBA         -0.9640     1.4450     0.4790 cd         1 1NN       0.286300
     20 CAM         -2.2240     0.6880     0.7320 c3         1 1NN       0.025300
     21 SAS         -2.8770     0.1570    -0.8830 ss         1 1NN      -0.314300
     22 C2          -4.3770    -0.6570    -0.4480 ca         1 1NN       0.312300
     23 N3          -5.0180    -1.1410    -1.4960 nb         1 1NN      -0.296500
     24 N1          -4.7200    -0.7080     0.8190 nb         1 1NN      -0.296500
     25 C6          -5.8840    -1.3310     1.0850 ca         1 1NN       0.415400
     26 NAC         -6.2670    -1.3540     2.3770 nv         1 1NN      -1.072900
     27 C5          -6.6590    -1.8900     0.0730 ca         1 1NN      -0.389000
     28 C4          -6.1740    -1.7730    -1.2310 ca         1 1NN       0.415400
     29 NAD         -6.8220    -2.3090    -2.2810 nv         1 1NN      -1.072900
     30 H1           4.7120    -4.5730    -0.5530 h1         1 1NN       0.053700
     31 H2           3.4570    -5.0850     0.5930 h1         1 1NN       0.053700
     32 H3           2.7390    -3.0420    -0.4150 h1         1 1NN       0.048200
     33 H4           3.1120    -2.7230     1.2850 h1         1 1NN       0.048200
     34 H5           2.0580    -0.9450     0.2460 ha         1 1NN       0.143000
     35 H6           8.3770    -0.1640    -0.9920 h1         1 1NN       0.041700
     36 H7           7.3530     0.9950    -1.8600 h1         1 1NN       0.041700
     37 H8           7.6730     1.2120    -0.1240 h1         1 1NN       0.041700
     38 H9           5.6940     2.2370    -0.7620 ha         1 1NN       0.122000
     39 H10          3.4390     3.0500    -0.4440 ha         1 1NN       0.116000
     40 H11         -1.7860     4.6240    -0.2810 hc         1 1NN       0.058200
     41 H12         -2.9100     3.3680     0.1560 hc         1 1NN       0.058200
     42 H13         -2.8660     5.1570     1.8910 hc         1 1NN       0.038033
     43 H14         -2.2910     3.6390     2.5800 hc         1 1NN       0.038033
     44 H15         -1.1400     4.9020     2.1440 hc         1 1NN       0.038033
     45 H16         -2.0260    -0.1870     1.3480 h1         1 1NN       0.087200
     46 H17         -2.9700     1.2990     1.2370 h1         1 1NN       0.087200
     47 H18         -7.0190    -1.9560     2.6640 hn         1 1NN       0.488250
     48 H19         -5.5900    -1.1150     3.0810 hn         1 1NN       0.488250
     49 H20         -7.5900    -2.3960     0.2880 ha         1 1NN       0.124000
     50 H21         -7.7600    -2.6550    -2.1770 hn         1 1NN       0.488250
     51 H22         -6.5240    -2.0700    -3.2110 hn         1 1NN       0.488250
@<TRIPOS>BOND
     1     1     2 1   
     2     2     3 1   
     3     2    30 1   
     4     2    31 1   
     5     3     4 1   
     6     3    32 1   
     7     3    33 1   
     8     4     5 1   
     9     5     6 ar  
    10     5     7 ar  
    11     6    12 ar  
    12     6    34 1   
    13     7     8 1   
    14     7    10 ar  
    15     8     9 1   
    16     9    35 1   
    17     9    36 1   
    18     9    37 1   
    19    10    11 ar  
    20    10    38 1   
    21    11    12 ar  
    22    11    39 1   
    23    12    13 1   
    24    13    14 2   
    25    13    15 1   
    26    14    19 1   
    27    15    16 1   
    28    16    17 1   
    29    16    19 2   
    30    17    18 1   
    31    17    40 1   
    32    17    41 1   
    33    18    42 1   
    34    18    43 1   
    35    18    44 1   
    36    19    20 1   
    37    20    21 1   
    38    20    45 1   
    39    20    46 1   
    40    21    22 1   
    41    22    23 ar  
    42    22    24 ar  
    43    23    28 ar  
    44    24    25 ar  
    45    25    26 1   
    46    25    27 ar  
    47    26    47 1   
    48    26    48 1   
    49    27    28 ar  
    50    27    49 1   
    51    28    29 1   
    52    29    50 1   
    53    29    51 1   
@<TRIPOS>SUBSTRUCTURE
     1 1NN         1 TEMP              0 ****  ****    0 ROOT
