@<TRIPOS>MOLECULE
1NN
   51    53     1     0     0
SMALL
No Charge or Current Charge


@<TRIPOS>ATOM
      1 FAE          5.2230    -4.5210     1.3860 f          1 1NN      -0.260000
      2 CAJ          4.4040    -4.4600     0.3030 c3         1 1NN       0.187600
      3 CAL          3.6820    -3.0980     0.2400 c3         1 1NN       0.123600
      4 OAR          4.6640    -2.0620     0.0380 os         1 1NN      -0.320100
      5 CAZ          4.3280    -0.7200    -0.0630 ca         1 1NN       0.107100
      6 CAI          2.9870    -0.2780     0.0290 ca         1 1NN      -0.131000
      7 CAY          5.3630     0.2200    -0.2640 ca         1 1NN       0.131100
      8 OAQ          6.6690    -0.2360    -0.3520 os         1 1NN      -0.315100
      9 CAB          7.7840     0.6480    -0.5550 c3         1 1NN       0.144900
     10 CAG          5.0440     1.5910    -0.3700 ca         1 1NN      -0.179000
     11 CAF          3.7110     2.0210    -0.2770 ca         1 1NN      -0.090000
     12 CAW          2.6610     1.0960    -0.0770 ca         1 1NN      -0.136500
     13 CBC          1.2550     1.5440     0.0220 cc         1 1NN       0.505900
     14 NAP          0.2480     0.7000     0.2220 nd         1 1NN      -0.640000
     15 SAT          0.8060     3.2300    -0.1130 ss         1 1NN      -0.035400
     16 CBB         -0.8520     2.7540     0.1140 cc         1 1NN      -0.204300
     17 CAK         -1.9530     3.7830     0.1160 c3         1 1NN      -0.006100
     18 CAA         -2.2020     4.3740     1.5150 c3         1 1NN      -0.088100
     19 CBA         -0.9560     1.3870     0.2710 cd         1 1NN       0.286300
     20 CAM         -2.2370     0.6210     0.4920 c3         1 1NN       0.025300
     21 SAS         -3.2230     0.3380    -1.0550 ss         1 1NN      -0.314300
     22 C2          -4.6750    -0.5490    -0.5000 ca         1 1NN       0.312300
     23 N3          -5.5650    -0.8880    -1.4550 nb         1 1NN      -0.296500
     24 N1          -4.7930    -0.8210     0.8170 nb         1 1NN      -0.296500
     25 C6          -5.8920    -1.4820     1.1890 ca         1 1NN       0.415400
     26 NAC         -6.0090    -1.7550     2.5060 nv         1 1NN      -1.072900
     27 C5          -6.8710    -1.8790     0.2870 ca         1 1NN      -0.389000
     28 C4          -6.6510    -1.5500    -1.0440 ca         1 1NN       0.415400
     29 NAD         -7.5430    -1.8880    -2.0000 nv         1 1NN      -1.072900
     30 H1           5.0020    -4.6130    -0.6040 h1         1 1NN       0.053700
     31 H2           3.6660    -5.2680     0.3790 h1         1 1NN       0.053700
     32 H3           2.9640    -3.1160    -0.5900 h1         1 1NN       0.048200
     33 H4           3.1300    -2.9380     1.1750 h1         1 1NN       0.048200
     34 H5           2.1880    -0.9970     0.1830 ha         1 1NN       0.143000
     35 H6           8.7200     0.0770    -0.5930 h1         1 1NN       0.041700
     36 H7           7.6820     1.1950    -1.5010 h1         1 1NN       0.041700
     37 H8           7.8620     1.3730     0.2660 h1         1 1NN       0.041700
     38 H9           5.8170     2.3380    -0.5240 ha         1 1NN       0.122000
     39 H10          3.5100     3.0860    -0.3640 ha         1 1NN       0.116000
     40 H11         -1.7010     4.5980    -0.5730 hc         1 1NN       0.058200
     41 H12         -2.8860     3.3440    -0.2590 hc         1 1NN       0.058200
     42 H13         -3.0070     5.1190     1.4790 hc         1 1NN       0.038033
     43 H14         -2.4930     3.5880     2.2220 hc         1 1NN       0.038033
     44 H15         -1.2970     4.8630     1.8950 hc         1 1NN       0.038033
     45 H16         -1.9960    -0.3520     0.9390 h1         1 1NN       0.087200
     46 H17         -2.8550     1.1730     1.2100 h1         1 1NN       0.087200
     47 H18         -6.6960    -2.4450     2.8010 hn         1 1NN       0.488250
     48 H19         -5.1910    -1.6420     3.0990 hn         1 1NN       0.488250
     49 H20         -7.7580    -2.4160     0.6050 ha         1 1NN       0.124000
     50 H21         -8.4760    -2.1750    -1.7150 hn         1 1NN       0.488250
     51 H22         -7.4580    -1.4540    -2.9170 hn         1 1NN       0.488250
@<TRIPOS>BOND
     1     1     2 1   
     2     2     3 1   
     3     2    30 1   
     4     2    31 1   
     5     3     4 1   
     6     3    32 1   
     7     3    33 1   
     8     4     5 1   
     9     5     6 ar  
    10     5     7 ar  
    11     6    12 ar  
    12     6    34 1   
    13     7     8 1   
    14     7    10 ar  
    15     8     9 1   
    16     9    35 1   
    17     9    36 1   
    18     9    37 1   
    19    10    11 ar  
    20    10    38 1   
    21    11    12 ar  
    22    11    39 1   
    23    12    13 1   
    24    13    14 2   
    25    13    15 1   
    26    14    19 1   
    27    15    16 1   
    28    16    17 1   
    29    16    19 2   
    30    17    18 1   
    31    17    40 1   
    32    17    41 1   
    33    18    42 1   
    34    18    43 1   
    35    18    44 1   
    36    19    20 1   
    37    20    21 1   
    38    20    45 1   
    39    20    46 1   
    40    21    22 1   
    41    22    23 ar  
    42    22    24 ar  
    43    23    28 ar  
    44    24    25 ar  
    45    25    26 1   
    46    25    27 ar  
    47    26    47 1   
    48    26    48 1   
    49    27    28 ar  
    50    27    49 1   
    51    28    29 1   
    52    29    50 1   
    53    29    51 1   
@<TRIPOS>SUBSTRUCTURE
     1 1NN         1 TEMP              0 ****  ****    0 ROOT
