@<TRIPOS>MOLECULE
1NO
   48    50     1     0     0
SMALL
bcc


@<TRIPOS>ATOM
      1 FAN          7.8510    -1.2740     1.5340 f          1 1NO      -0.239300
      2 CAM          7.4330    -1.7180     0.2840 c3         1 1NO       0.169900
      3 CAL          5.9810    -1.4020     0.0710 c3         1 1NO       0.102400
      4 OAK          5.8330     0.0020     0.0030 os         1 1NO      -0.294900
      5 CAV          4.5970     0.5150    -0.1270 ca         1 1NO       0.109100
      6 CAU          3.4410    -0.2320    -0.2560 ca         1 1NO      -0.177000
      7 CAW          4.5230     1.9250    -0.1310 ca         1 1NO       0.131100
      8 OAX          5.6920     2.5670     0.0060 os         1 1NO      -0.293900
      9 CAY          5.6800     3.9820     0.0350 c3         1 1NO       0.121700
     10 CBB          3.2870     2.5350    -0.2700 ca         1 1NO      -0.200000
     11 CBA          2.1300     1.7760    -0.3960 ca         1 1NO      -0.073000
     12 CAT          2.1920     0.3910    -0.3870 ca         1 1NO      -0.139500
     13 CAS          0.9650    -0.3920    -0.5010 cc         1 1NO       0.505900
     14 NAR         -0.2080     0.1150    -0.7210 nd         1 1NO      -0.633000
     15 SAZ          0.9420    -2.1160    -0.3290 ss         1 1NO      -0.185300
     16 CAP         -0.7590    -2.1240    -0.5740 cc         1 1NO      -0.127700
     17 CAO         -1.5710    -3.3730    -0.5140 c3         1 1NO      -0.016800
     18 CAQ         -1.1790    -0.8410    -0.7680 cd         1 1NO       0.349600
     19 CAJ         -2.6000    -0.4380    -0.9700 c3         1 1NO      -0.021600
     20 SAI         -3.2820    -0.0260     0.6690 ss         1 1NO      -0.264400
     21 C2          -4.9740     0.3100     0.3180 ca         1 1NO       0.837300
     22 N1          -5.6680     0.6150     1.4000 nb         1 1NO      -0.820000
     23 N3          -5.3890     0.2290    -0.9260 nb         1 1NO      -0.820000
     24 C4          -6.6970     0.4810    -1.1250 ca         1 1NO       0.738700
     25 NAF         -7.1300     0.4300    -2.4000 nv         1 1NO      -0.956000
     26 C5          -7.5440     0.8070    -0.0680 ca         1 1NO      -0.534600
     27 C6          -6.9720     0.8690     1.2030 ca         1 1NO       0.738700
     28 NAA         -7.6910     1.2120     2.2900 nv         1 1NO      -0.956000
     29 H1           8.0580    -1.2460    -0.4760 h1         1 1NO       0.053700
     30 H2           7.5720    -2.7990     0.2320 h1         1 1NO       0.053700
     31 H3           5.6620    -1.8810    -0.8620 h1         1 1NO       0.044200
     32 H4           5.3790    -1.8220     0.8850 h1         1 1NO       0.044200
     33 H5           3.5050    -1.3120    -0.2620 ha         1 1NO       0.136000
     34 H6           6.7120     4.2940     0.1720 h1         1 1NO       0.042367
     35 H7           5.3040     4.4060    -0.8990 h1         1 1NO       0.042367
     36 H8           5.0820     4.3670     0.8650 h1         1 1NO       0.042367
     37 H9           3.2020     3.6130    -0.2750 ha         1 1NO       0.142000
     38 H10          1.1770     2.2770    -0.4980 ha         1 1NO       0.159000
     39 H11         -0.9540    -4.2660    -0.5940 hc         1 1NO       0.051367
     40 H12         -2.1220    -3.4340     0.4260 hc         1 1NO       0.051367
     41 H13         -2.2980    -3.4040    -1.3250 hc         1 1NO       0.051367
     42 H14         -2.6680     0.4320    -1.6210 h1         1 1NO       0.086700
     43 H15         -3.1880    -1.2430    -1.4060 h1         1 1NO       0.086700
     44 H16         -8.1170     0.4050    -2.5890 hn         1 1NO       0.430050
     45 H17         -6.5310     0.0070    -3.0880 hn         1 1NO       0.430050
     46 H18         -8.5960     1.0040    -0.2250 ha         1 1NO       0.143000
     47 H19         -8.6950     1.2050     2.2420 hn         1 1NO       0.430050
     48 H20         -7.2880     1.0460     3.1970 hn         1 1NO       0.430050
@<TRIPOS>BOND
     1     1     2 1   
     2     2     3 1   
     3     2    29 1   
     4     2    30 1   
     5     3     4 1   
     6     3    31 1   
     7     3    32 1   
     8     4     5 1   
     9     5     6 ar  
    10     5     7 ar  
    11     6    12 ar  
    12     6    33 1   
    13     7     8 1   
    14     7    10 ar  
    15     8     9 1   
    16     9    34 1   
    17     9    35 1   
    18     9    36 1   
    19    10    11 ar  
    20    10    37 1   
    21    11    12 ar  
    22    11    38 1   
    23    12    13 1   
    24    13    14 2   
    25    13    15 1   
    26    14    18 1   
    27    15    16 1   
    28    16    17 1   
    29    16    18 2   
    30    17    39 1   
    31    17    40 1   
    32    17    41 1   
    33    18    19 1   
    34    19    20 1   
    35    19    42 1   
    36    19    43 1   
    37    20    21 1   
    38    21    22 ar  
    39    21    23 ar  
    40    22    27 ar  
    41    23    24 ar  
    42    24    25 1   
    43    24    26 ar  
    44    25    44 1   
    45    25    45 1   
    46    26    27 ar  
    47    26    46 1   
    48    27    28 1   
    49    28    47 1   
    50    28    48 1   
@<TRIPOS>SUBSTRUCTURE
     1 1NO         1 TEMP              0 ****  ****    0 ROOT
