@<TRIPOS>MOLECULE
1NO
   48    50     1     0     0
SMALL
No Charge or Current Charge


@<TRIPOS>ATOM
      1 FAN          8.1220    -1.3000     1.4010 f          1 1NO      -0.258000
      2 CAM          7.6280    -1.8150     0.2450 c3         1 1NO       0.188600
      3 CAL          6.1230    -1.5070     0.1070 c3         1 1NO       0.125600
      4 OAK          5.9510    -0.0800    -0.0030 os         1 1NO      -0.318100
      5 CAV          4.7070     0.5180    -0.1410 ca         1 1NO       0.109100
      6 CAU          3.5150    -0.2430    -0.1800 ca         1 1NO      -0.159000
      7 CAW          4.6460     1.9260    -0.2440 ca         1 1NO       0.131100
      8 OAX          5.8270     2.6490    -0.2030 os         1 1NO      -0.317100
      9 CAY          5.8600     4.0830    -0.3000 c3         1 1NO       0.144900
     10 CBB          3.3920     2.5570    -0.3840 ca         1 1NO      -0.182000
     11 CBA          2.2130     1.7950    -0.4220 ca         1 1NO      -0.055000
     12 CAT          2.2530     0.3850    -0.3210 ca         1 1NO      -0.139500
     13 CAS          1.0000    -0.3980    -0.3630 cc         1 1NO       0.505900
     14 NAR         -0.1940     0.1690    -0.5010 nd         1 1NO      -0.633000
     15 SAZ          0.9900    -2.1440    -0.2370 ss         1 1NO      -0.040400
     16 CAP         -0.7420    -2.0940    -0.3790 cc         1 1NO      -0.207300
     17 CAO         -1.5600    -3.3590    -0.3500 c3         1 1NO      -0.016800
     18 CAQ         -1.1900    -0.7960    -0.5070 cd         1 1NO       0.284300
     19 CAJ         -2.6320    -0.3750    -0.6490 c3         1 1NO       0.026300
     20 SAI         -3.5960    -0.4430     0.9360 ss         1 1NO      -0.312300
     21 C2          -5.2430     0.0890     0.4780 ca         1 1NO       0.311300
     22 N1          -6.1390     0.1790     1.4810 nb         1 1NO      -0.294000
     23 N3          -5.4870     0.3610    -0.8220 nb         1 1NO      -0.294000
     24 C4          -6.7280     0.7550    -1.1210 ca         1 1NO       0.410400
     25 NAF         -6.9730     1.0270    -2.4210 nv         1 1NO      -1.066400
     26 C5          -7.7270     0.8810    -0.1640 ca         1 1NO      -0.386000
     27 C6          -7.3690     0.5760     1.1430 ca         1 1NO       0.410400
     28 NAA         -8.2670     0.6660     2.1490 nv         1 1NO      -1.066400
     29 H1           8.1800    -1.3860    -0.6000 h1         1 1NO       0.053700
     30 H2           7.7840    -2.9010     0.2530 h1         1 1NO       0.053700
     31 H3           5.7370    -2.0110    -0.7880 h1         1 1NO       0.044200
     32 H4           5.5920    -1.8990     0.9850 h1         1 1NO       0.044200
     33 H5           3.5660    -1.3240    -0.1010 ha         1 1NO       0.118000
     34 H6           6.8940     4.4440    -0.2450 h1         1 1NO       0.042367
     35 H7           5.4330     4.4200    -1.2530 h1         1 1NO       0.042367
     36 H8           5.2960     4.5430     0.5220 h1         1 1NO       0.042367
     37 H9           3.3090     3.6370    -0.4660 ha         1 1NO       0.124000
     38 H10          1.2620     2.3130    -0.5310 ha         1 1NO       0.141000
     39 H11         -0.9210    -4.2460    -0.2710 hc         1 1NO       0.051367
     40 H12         -2.2440    -3.3620     0.5080 hc         1 1NO       0.051367
     41 H13         -2.1610    -3.4590    -1.2610 hc         1 1NO       0.051367
     42 H14         -2.6660     0.6500    -1.0380 h1         1 1NO       0.086700
     43 H15         -3.1150    -1.0280    -1.3860 h1         1 1NO       0.086700
     44 H16         -7.9390     1.1070    -2.7300 hn         1 1NO       0.485250
     45 H17         -6.2920     0.7310    -3.1160 hn         1 1NO       0.485250
     46 H18         -8.7300     1.2040    -0.4220 ha         1 1NO       0.125000
     47 H19         -9.2540     0.7370     1.9170 hn         1 1NO       0.485250
     48 H20         -8.0350     0.2440     3.0450 hn         1 1NO       0.485250
@<TRIPOS>BOND
     1     1     2 1   
     2     2     3 1   
     3     2    29 1   
     4     2    30 1   
     5     3     4 1   
     6     3    31 1   
     7     3    32 1   
     8     4     5 1   
     9     5     6 ar  
    10     5     7 ar  
    11     6    12 ar  
    12     6    33 1   
    13     7     8 1   
    14     7    10 ar  
    15     8     9 1   
    16     9    34 1   
    17     9    35 1   
    18     9    36 1   
    19    10    11 ar  
    20    10    37 1   
    21    11    12 ar  
    22    11    38 1   
    23    12    13 1   
    24    13    14 2   
    25    13    15 1   
    26    14    18 1   
    27    15    16 1   
    28    16    17 1   
    29    16    18 2   
    30    17    39 1   
    31    17    40 1   
    32    17    41 1   
    33    18    19 1   
    34    19    20 1   
    35    19    42 1   
    36    19    43 1   
    37    20    21 1   
    38    21    22 ar  
    39    21    23 ar  
    40    22    27 ar  
    41    23    24 ar  
    42    24    25 1   
    43    24    26 ar  
    44    25    44 1   
    45    25    45 1   
    46    26    27 ar  
    47    26    46 1   
    48    27    28 1   
    49    28    47 1   
    50    28    48 1   
@<TRIPOS>SUBSTRUCTURE
     1 1NO         1 TEMP              0 ****  ****    0 ROOT
