@<TRIPOS>MOLECULE
1NP
   19    20     1     0     0
SMALL
abcg2


@<TRIPOS>ATOM
      1 O1          -1.7890     2.0160     0.0880 oh         1 1NP      -0.564100
      2 C1          -1.3760     0.7150     0.0220 ca         1 1NP       0.113100
      3 C8A          0.0170     0.4310     0.0050 ca         1 1NP      -0.058000
      4 C8           0.9960     1.4530     0.0160 ca         1 1NP      -0.089000
      5 C7           2.3280     1.1400    -0.0010 ca         1 1NP      -0.112000
      6 C2          -2.2930    -0.3020     0.0210 ca         1 1NP      -0.133000
      7 C3          -1.8680    -1.6460     0.0020 ca         1 1NP      -0.096000
      8 C4          -0.5360    -1.9550    -0.0190 ca         1 1NP      -0.106000
      9 C4A          0.4350    -0.9260    -0.0160 ca         1 1NP      -0.027000
     10 C5           1.8210    -1.2140    -0.0330 ca         1 1NP      -0.102000
     11 C6           2.7460    -0.2070    -0.0280 ca         1 1NP      -0.103000
     12 HO1         -1.8840     2.3800    -0.7990 ho         1 1NP       0.460000
     13 H8           0.6870     2.4890     0.0400 ha         1 1NP       0.122000
     14 H7           3.0680     1.9290     0.0070 ha         1 1NP       0.113000
     15 H2          -3.3510    -0.0700     0.0420 ha         1 1NP       0.123000
     16 H3          -2.6100    -2.4330    -0.0000 ha         1 1NP       0.115000
     17 H4          -0.2120    -2.9890    -0.0350 ha         1 1NP       0.115000
     18 H5           2.1400    -2.2490    -0.0510 ha         1 1NP       0.113000
     19 H6           3.8030    -0.4380    -0.0420 ha         1 1NP       0.113000
@<TRIPOS>BOND
     1     1     2 1   
     2     1    12 1   
     3     2     3 ar  
     4     2     6 ar  
     5     3     4 ar  
     6     3     9 ar  
     7     4     5 ar  
     8     4    13 1   
     9     5    11 ar  
    10     5    14 1   
    11     6     7 ar  
    12     6    15 1   
    13     7     8 ar  
    14     7    16 1   
    15     8     9 ar  
    16     8    17 1   
    17     9    10 ar  
    18    10    11 ar  
    19    10    18 1   
    20    11    19 1   
@<TRIPOS>SUBSTRUCTURE
     1 1NP         1 TEMP              0 ****  ****    0 ROOT
