@<TRIPOS>MOLECULE
1NP
   19    20     1     0     0
SMALL
No Charge or Current Charge


@<TRIPOS>ATOM
      1 O1          -1.9340     1.9620    -0.0950 oh         1 1NP      -0.564100
      2 C1          -1.4360     0.6880    -0.0510 ca         1 1NP       0.113100
      3 C8A         -0.0410     0.4270    -0.0600 ca         1 1NP      -0.058000
      4 C8           0.9180     1.4670    -0.1170 ca         1 1NP      -0.089000
      5 C7           2.2920     1.1690    -0.1250 ca         1 1NP      -0.112000
      6 C2          -2.3510    -0.3760     0.0070 ca         1 1NP      -0.133000
      7 C3          -1.8970    -1.7040     0.0540 ca         1 1NP      -0.096000
      8 C4          -0.5200    -1.9730     0.0450 ca         1 1NP      -0.106000
      9 C4A          0.4080    -0.9170    -0.0120 ca         1 1NP      -0.027000
     10 C5           1.7860    -1.2050    -0.0200 ca         1 1NP      -0.102000
     11 C6           2.7260    -0.1640    -0.0770 ca         1 1NP      -0.103000
     12 HO1         -1.1850     2.5910    -0.1320 ho         1 1NP       0.460000
     13 H8           0.6200     2.5110    -0.1560 ha         1 1NP       0.122000
     14 H7           3.0210     1.9750    -0.1690 ha         1 1NP       0.113000
     15 H2          -3.4190    -0.1720     0.0140 ha         1 1NP       0.123000
     16 H3          -2.6120    -2.5230     0.0980 ha         1 1NP       0.115000
     17 H4          -0.1760    -3.0040     0.0820 ha         1 1NP       0.115000
     18 H5           2.1310    -2.2360     0.0170 ha         1 1NP       0.113000
     19 H6           3.7900    -0.3910    -0.0830 ha         1 1NP       0.113000
@<TRIPOS>BOND
     1     1     2 1   
     2     1    12 1   
     3     2     3 ar  
     4     2     6 ar  
     5     3     4 ar  
     6     3     9 ar  
     7     4     5 ar  
     8     4    13 1   
     9     5    11 ar  
    10     5    14 1   
    11     6     7 ar  
    12     6    15 1   
    13     7     8 ar  
    14     7    16 1   
    15     8     9 ar  
    16     8    17 1   
    17     9    10 ar  
    18    10    11 ar  
    19    10    18 1   
    20    11    19 1   
@<TRIPOS>SUBSTRUCTURE
     1 1NP         1 TEMP              0 ****  ****    0 ROOT
