@<TRIPOS>MOLECULE
1NQ
   59    62     1     0     0
SMALL
abcg2


@<TRIPOS>ATOM
      1 CAA         21.3390    54.0280    -7.2260 c3         1 1NQ      -0.115100
      2 CAJ         20.6950    53.1360    -6.1700 c3         1 1NQ       0.104000
      3 NAS         21.2890    51.8060    -6.1150 ns         1 1NQ      -0.495900
      4 CAX         22.3640    51.5170    -5.3610 c          1 1NQ       0.633700
      5 OAD         22.8960    52.3370    -4.6030 o          1 1NQ      -0.610100
      6 CAZ         22.8920    50.1360    -5.4570 cc         1 1NQ      -0.304600
      7 SAU         24.1160    49.6750    -4.3340 ss         1 1NQ       0.442000
      8 CAG         22.5750    49.1040    -6.3100 cd         1 1NQ      -0.115000
      9 CAH         23.3170    47.9330    -6.0470 cd         1 1NQ      -0.113000
     10 CBA         24.1920    48.0860    -4.9960 cc         1 1NQ      -0.313600
     11 CAY         25.1350    47.1320    -4.3650 c          1 1NQ       0.636700
     12 OAE         25.9010    47.5150    -3.4740 o          1 1NQ      -0.613100
     13 NAT         25.0910    45.8660    -4.8170 ns         1 1NQ      -0.492900
     14 CAK         25.8330    44.7630    -4.2220 c3         1 1NQ       0.099000
     15 CAL         24.9240    43.8180    -3.4350 c3         1 1NQ      -0.095400
     16 CBF         24.2160    44.4550    -2.2380 c6         1 1NQ      -0.059700
     17 CAN         23.1150    43.5350    -1.6990 c6         1 1NQ      -0.101400
     18 CAP         22.4570    44.1500    -0.4670 c6         1 1NQ       0.221800
     19 CAM         25.1850    44.8330    -1.1110 c6         1 1NQ      -0.101400
     20 CAO         24.4560    45.3770     0.1190 c6         1 1NQ       0.221800
     21 NBG         23.4470    44.4140     0.5710 nh         1 1NQ      -0.777300
     22 C6          23.6020    43.7060     1.7090 ca         1 1NQ       0.443900
     23 N1          24.5340    44.1350     2.5830 nb         1 1NQ      -0.282000
     24 C2          24.7140    43.4910     3.7350 ca         1 1NQ       0.166900
     25 N3          24.0800    42.4190     4.1750 nb         1 1NQ      -0.193000
     26 C4          23.1520    41.9370     3.3130 ca         1 1NQ       0.145800
     27 CAI         22.3880    40.7540     3.5420 cc         1 1NQ      -0.266800
     28 C5          22.8620    42.5360     2.0710 ca         1 1NQ      -0.341000
     29 SAV         21.6680    41.6100     1.2090 ss         1 1NQ       0.174400
     30 CBB         21.5620    40.4580     2.5020 cd         1 1NQ      -0.126600
     31 CAW         20.6100    39.3350     2.3090 c          1 1NQ       0.635300
     32 OAC         19.9090    39.2840     1.2970 o          1 1NQ      -0.608100
     33 NAB         20.5650    38.4050     3.2780 nt         1 1NQ      -0.594000
     34 H1          20.8570    55.0080    -7.2330 hc         1 1NQ       0.044033
     35 H2          22.4010    54.1680    -7.0170 hc         1 1NQ       0.044033
     36 H3          21.2370    53.5870    -8.2190 hc         1 1NQ       0.044033
     37 H4          19.6320    53.0070    -6.3750 h1         1 1NQ       0.056200
     38 H5          20.7920    53.5850    -5.1820 h1         1 1NQ       0.056200
     39 H6          20.9010    51.0950    -6.7140 hn         1 1NQ       0.314500
     40 H7          21.8470    49.1730    -7.1070 ha         1 1NQ       0.130000
     41 H8          23.2030    47.0230    -6.6190 ha         1 1NQ       0.129000
     42 H9          24.3960    45.6270    -5.5070 hn         1 1NQ       0.312500
     43 H10         26.3280    44.2090    -5.0220 h1         1 1NQ       0.064700
     44 H11         26.6050    45.1950    -3.5900 h1         1 1NQ       0.064700
     45 H12         24.1710    43.4130    -4.1190 hc         1 1NQ       0.046700
     46 H13         25.5260    42.9690    -3.0950 hc         1 1NQ       0.046700
     47 H14         23.7260    45.3750    -2.5790 hc         1 1NQ       0.049700
     48 H15         22.3560    43.3670    -2.4670 hc         1 1NQ       0.056950
     49 H16         23.5360    42.5600    -1.4340 hc         1 1NQ       0.056950
     50 H17         22.0130    45.1140    -0.7350 h1         1 1NQ       0.065700
     51 H18         21.6460    43.5410    -0.0850 h1         1 1NQ       0.065700
     52 H19         25.7620    43.9500    -0.8160 hc         1 1NQ       0.056950
     53 H20         25.8930    45.5890    -1.4540 hc         1 1NQ       0.056950
     54 H21         25.1470    45.5740     0.9300 h1         1 1NQ       0.065700
     55 H22         23.9410    46.3100    -0.1290 h1         1 1NQ       0.065700
     56 H23         25.4790    43.9060     4.3860 h5         1 1NQ       0.047100
     57 H24         22.4790    40.1760     4.4510 ha         1 1NQ       0.213000
     58 H25         19.9290    37.6290     3.1790 hn         1 1NQ       0.321500
     59 H26         21.1540    38.4380     4.0930 hn         1 1NQ       0.321500
@<TRIPOS>BOND
     1     1     2 1   
     2     1    34 1   
     3     1    35 1   
     4     1    36 1   
     5     2     3 1   
     6     2    37 1   
     7     2    38 1   
     8     3     4 1   
     9     3    39 1   
    10     4     5 2   
    11     4     6 1   
    12     6     7 1   
    13     6     8 2   
    14     7    10 1   
    15     8     9 1   
    16     8    40 1   
    17     9    10 2   
    18     9    41 1   
    19    10    11 1   
    20    11    12 2   
    21    11    13 1   
    22    13    14 1   
    23    13    42 1   
    24    14    15 1   
    25    14    43 1   
    26    14    44 1   
    27    15    16 1   
    28    15    45 1   
    29    15    46 1   
    30    16    17 1   
    31    16    19 1   
    32    16    47 1   
    33    17    18 1   
    34    17    48 1   
    35    17    49 1   
    36    18    21 1   
    37    18    50 1   
    38    18    51 1   
    39    19    20 1   
    40    19    52 1   
    41    19    53 1   
    42    20    21 1   
    43    20    54 1   
    44    20    55 1   
    45    21    22 1   
    46    22    23 ar  
    47    22    28 ar  
    48    23    24 ar  
    49    24    25 ar  
    50    24    56 1   
    51    25    26 ar  
    52    26    27 1   
    53    26    28 ar  
    54    27    30 2   
    55    27    57 1   
    56    28    29 1   
    57    29    30 1   
    58    30    31 1   
    59    31    32 2   
    60    31    33 1   
    61    33    58 1   
    62    33    59 1   
@<TRIPOS>SUBSTRUCTURE
     1 1NQ         1 TEMP              0 ****  ****    0 ROOT
