@<TRIPOS>MOLECULE
1NQ
   59    62     1     0     0
SMALL
No Charge or Current Charge


@<TRIPOS>ATOM
      1 CAA         21.8580    54.4490    -7.0610 c3         1 1NQ      -0.115100
      2 CAJ         20.9470    53.4970    -6.2660 c3         1 1NQ       0.104000
      3 NAS         21.5480    52.1730    -6.0960 ns         1 1NQ      -0.495900
      4 CAX         22.5250    51.8640    -5.1780 c          1 1NQ       0.633700
      5 OAD         22.9630    52.6850    -4.3870 o          1 1NQ      -0.610100
      6 CAZ         22.9830    50.4660    -5.2340 cc         1 1NQ      -0.304600
      7 SAU         24.2250    49.8800    -4.1370 ss         1 1NQ       0.442000
      8 CAG         22.5450    49.4760    -6.0890 cd         1 1NQ      -0.115000
      9 CAH         23.1990    48.2330    -5.8780 cd         1 1NQ      -0.113000
     10 CBA         24.1320    48.2820    -4.8620 cc         1 1NQ      -0.313600
     11 CAY         24.9830    47.1840    -4.3770 c          1 1NQ       0.636700
     12 OAE         25.7870    47.3100    -3.4670 o          1 1NQ      -0.613100
     13 NAT         24.7960    45.9960    -5.0430 ns         1 1NQ      -0.492900
     14 CAK         25.4620    44.7290    -4.7220 c3         1 1NQ       0.099000
     15 CAL         24.5210    43.7410    -3.9940 c3         1 1NQ      -0.095400
     16 CBF         23.9950    44.1910    -2.5950 c6         1 1NQ      -0.059700
     17 CAN         22.9270    43.2040    -2.0540 c6         1 1NQ      -0.101400
     18 CAP         22.4090    43.6390    -0.6620 c6         1 1NQ       0.221800
     19 CAM         25.1320    44.3300    -1.5440 c6         1 1NQ      -0.101400
     20 CAO         24.5790    44.7400    -0.1570 c6         1 1NQ       0.221800
     21 NBG         23.5360    43.7780     0.2990 nh         1 1NQ      -0.777300
     22 C6          23.2880    43.6030     1.6730 ca         1 1NQ       0.443900
     23 N1          23.4490    44.6710     2.4840 nb         1 1NQ      -0.282000
     24 C2          23.2050    44.4790     3.8020 ca         1 1NQ       0.166900
     25 N3          22.8230    43.3250     4.3940 nb         1 1NQ      -0.193000
     26 C4          22.6780    42.2770     3.5660 ca         1 1NQ       0.145800
     27 CAI         22.3030    40.9550     3.9940 cc         1 1NQ      -0.266800
     28 C5          22.8980    42.3680     2.2100 ca         1 1NQ      -0.341000
     29 SAV         22.6950    40.8250     1.3570 ss         1 1NQ       0.174400
     30 CBB         22.2660    40.0630     2.9190 cd         1 1NQ      -0.126600
     31 CAW         21.9120    38.6190     3.0020 c          1 1NQ       0.635300
     32 OAC         21.8890    37.8670     2.0420 o          1 1NQ      -0.608100
     33 NAB         21.6040    38.1460     4.2290 nt         1 1NQ      -0.594000
     34 H1          21.3720    55.4240    -7.1860 hc         1 1NQ       0.044033
     35 H2          22.8100    54.6050    -6.5380 hc         1 1NQ       0.044033
     36 H3          22.0710    54.0400    -8.0550 hc         1 1NQ       0.044033
     37 H4          19.9910    53.3820    -6.7960 h1         1 1NQ       0.056200
     38 H5          20.7350    53.9280    -5.2780 h1         1 1NQ       0.056200
     39 H6          21.2480    51.4230    -6.7040 hn         1 1NQ       0.314500
     40 H7          21.7830    49.6090    -6.8520 ha         1 1NQ       0.130000
     41 H8          22.9710    47.3480    -6.4660 ha         1 1NQ       0.129000
     42 H9          24.1100    46.0030    -5.7850 hn         1 1NQ       0.312500
     43 H10         25.7980    44.2720    -5.6630 h1         1 1NQ       0.064700
     44 H11         26.3570    44.9160    -4.1150 h1         1 1NQ       0.064700
     45 H12         23.6690    43.5440    -4.6570 hc         1 1NQ       0.046700
     46 H13         25.0480    42.7840    -3.8940 hc         1 1NQ       0.046700
     47 H14         23.5160    45.1710    -2.7300 hc         1 1NQ       0.049700
     48 H15         22.0820    43.1400    -2.7520 hc         1 1NQ       0.056950
     49 H16         23.3510    42.1920    -1.9820 hc         1 1NQ       0.056950
     50 H17         21.8760    44.5970    -0.7580 h1         1 1NQ       0.065700
     51 H18         21.6760    42.9000    -0.3080 h1         1 1NQ       0.065700
     52 H19         25.6730    43.3790    -1.4510 hc         1 1NQ       0.056950
     53 H20         25.8690    45.0760    -1.8660 hc         1 1NQ       0.056950
     54 H21         25.4170    44.7680     0.5560 h1         1 1NQ       0.065700
     55 H22         24.1620    45.7560    -0.2160 h1         1 1NQ       0.065700
     56 H23         23.3320    45.3420     4.4530 h5         1 1NQ       0.047100
     57 H24         22.0810    40.6990     5.0250 ha         1 1NQ       0.213000
     58 H25         21.3580    37.1730     4.3320 hn         1 1NQ       0.321500
     59 H26         21.6210    38.7580     5.0280 hn         1 1NQ       0.321500
@<TRIPOS>BOND
     1     1     2 1   
     2     1    34 1   
     3     1    35 1   
     4     1    36 1   
     5     2     3 1   
     6     2    37 1   
     7     2    38 1   
     8     3     4 1   
     9     3    39 1   
    10     4     5 2   
    11     4     6 1   
    12     6     7 1   
    13     6     8 2   
    14     7    10 1   
    15     8     9 1   
    16     8    40 1   
    17     9    10 2   
    18     9    41 1   
    19    10    11 1   
    20    11    12 2   
    21    11    13 1   
    22    13    14 1   
    23    13    42 1   
    24    14    15 1   
    25    14    43 1   
    26    14    44 1   
    27    15    16 1   
    28    15    45 1   
    29    15    46 1   
    30    16    17 1   
    31    16    19 1   
    32    16    47 1   
    33    17    18 1   
    34    17    48 1   
    35    17    49 1   
    36    18    21 1   
    37    18    50 1   
    38    18    51 1   
    39    19    20 1   
    40    19    52 1   
    41    19    53 1   
    42    20    21 1   
    43    20    54 1   
    44    20    55 1   
    45    21    22 1   
    46    22    23 ar  
    47    22    28 ar  
    48    23    24 ar  
    49    24    25 ar  
    50    24    56 1   
    51    25    26 ar  
    52    26    27 1   
    53    26    28 ar  
    54    27    30 2   
    55    27    57 1   
    56    28    29 1   
    57    29    30 1   
    58    30    31 1   
    59    31    32 2   
    60    31    33 1   
    61    33    58 1   
    62    33    59 1   
@<TRIPOS>SUBSTRUCTURE
     1 1NQ         1 TEMP              0 ****  ****    0 ROOT
