@<TRIPOS>MOLECULE
1NR
   54    56     1     0     0
SMALL
No Charge or Current Charge


@<TRIPOS>ATOM
      1 CAY          7.6540     2.3610    -0.1760 c3         1 1NR      -0.080767
      2 CAX          7.0870     1.0800     0.4940 c3         1 1NR      -0.123000
      3 CAZ          7.9830    -0.1300     0.0850 c3         1 1NR      -0.080767
      4 CBA          7.1390     1.2320     2.0380 c3         1 1NR      -0.080767
      5 CAA          5.5950     0.9050     0.0590 c          1 1NR       0.602100
      6 OAC          4.7470     1.7590     0.2880 o          1 1NR      -0.605100
      7 NAB          5.2690    -0.2600    -0.6060 ns         1 1NR      -0.511900
      8 CAD          3.9230    -0.6230    -1.0540 c3         1 1NR       0.106000
      9 CAE          3.0530    -1.1630     0.1030 c3         1 1NR      -0.092400
     10 CAF          1.6430    -1.6770    -0.3160 c6         1 1NR      -0.056700
     11 CAK          0.9050    -2.3240     0.8870 c6         1 1NR      -0.102900
     12 CAJ         -0.5090    -2.8200     0.4970 c6         1 1NR       0.217800
     13 CAG          0.7490    -0.5590    -0.9210 c6         1 1NR      -0.102900
     14 CAH         -0.6590    -1.0910    -1.2810 c6         1 1NR       0.217800
     15 NAI         -1.3080    -1.7110    -0.0950 nh         1 1NR      -0.771300
     16 C6          -2.7140    -1.7240    -0.0180 ca         1 1NR       0.441900
     17 N1          -3.3320    -2.9260    -0.0300 nb         1 1NR      -0.284000
     18 C2          -4.6840    -2.9180     0.0450 ca         1 1NR       0.168900
     19 N3          -5.4840    -1.8310     0.1380 nb         1 1NR      -0.179000
     20 C4          -4.8440    -0.6500     0.1550 ca         1 1NR       0.145800
     21 CAR         -5.5020     0.6240     0.2740 cc         1 1NR      -0.225800
     22 C5          -3.4720    -0.5470     0.0810 ca         1 1NR      -0.324000
     23 SAT         -2.8850     1.1270     0.1850 ss         1 1NR       0.082400
     24 CAS         -4.5880     1.6740     0.3020 cd         1 1NR      -0.131600
     25 CAU         -4.9930     3.1000     0.4140 c          1 1NR       0.639300
     26 OAV         -6.1500     3.4820     0.4930 o          1 1NR      -0.583100
     27 NAW         -3.9820     3.9960     0.4270 nt         1 1NR      -0.601000
     28 H1           7.6070     2.2830    -1.2690 hc         1 1NR       0.040033
     29 H2           7.0850     3.2490     0.1240 hc         1 1NR       0.040033
     30 H3           8.7020     2.5230     0.1080 hc         1 1NR       0.040033
     31 H4           9.0200     0.0290     0.4070 hc         1 1NR       0.040033
     32 H5           7.6330    -1.0600     0.5520 hc         1 1NR       0.040033
     33 H6           7.9940    -0.2680    -1.0030 hc         1 1NR       0.040033
     34 H7           6.5610     2.1030     2.3690 hc         1 1NR       0.040033
     35 H8           6.7220     0.3440     2.5300 hc         1 1NR       0.040033
     36 H9           8.1700     1.3610     2.3880 hc         1 1NR       0.040033
     37 H10          6.0210    -0.9180    -0.7660 hn         1 1NR       0.312500
     38 H11          3.4490     0.2600    -1.5030 h1         1 1NR       0.050200
     39 H12          4.0120    -1.3920    -1.8320 h1         1 1NR       0.050200
     40 H13          3.6040    -1.9810     0.5830 hc         1 1NR       0.045700
     41 H14          2.9490    -0.3790     0.8630 hc         1 1NR       0.045700
     42 H15          1.8040    -2.4520    -1.0800 hc         1 1NR       0.050700
     43 H16          1.4890    -3.1670     1.2810 hc         1 1NR       0.054200
     44 H17          0.8170    -1.5960     1.7060 hc         1 1NR       0.054200
     45 H18         -0.4210    -3.6520    -0.2190 h1         1 1NR       0.065700
     46 H19         -1.0020    -3.2140     1.3990 h1         1 1NR       0.065700
     47 H20          0.6510     0.2710    -0.2080 hc         1 1NR       0.054200
     48 H21          1.2110    -0.1420    -1.8260 hc         1 1NR       0.054200
     49 H22         -1.2630    -0.2620    -1.6760 h1         1 1NR       0.065700
     50 H23         -0.5690    -1.8330    -2.0900 h1         1 1NR       0.065700
     51 H24         -5.1790    -3.8880     0.0320 h5         1 1NR       0.048100
     52 H25         -6.5790     0.7580     0.3360 ha         1 1NR       0.239000
     53 H27         -3.0270     3.6800     0.3620 hn         1 1NR       0.317000
     54 H28         -4.1960     4.9780     0.5010 hn         1 1NR       0.317000
@<TRIPOS>BOND
     1     1     2 1   
     2     1    28 1   
     3     1    29 1   
     4     1    30 1   
     5     2     3 1   
     6     2     4 1   
     7     2     5 1   
     8     3    31 1   
     9     3    32 1   
    10     3    33 1   
    11     4    34 1   
    12     4    35 1   
    13     4    36 1   
    14     5     6 2   
    15     5     7 1   
    16     7     8 1   
    17     7    37 1   
    18     8     9 1   
    19     8    38 1   
    20     8    39 1   
    21     9    10 1   
    22     9    40 1   
    23     9    41 1   
    24    10    11 1   
    25    10    13 1   
    26    10    42 1   
    27    11    12 1   
    28    11    43 1   
    29    11    44 1   
    30    12    15 1   
    31    12    45 1   
    32    12    46 1   
    33    13    14 1   
    34    13    47 1   
    35    13    48 1   
    36    14    15 1   
    37    14    49 1   
    38    14    50 1   
    39    15    16 1   
    40    16    17 ar  
    41    16    22 ar  
    42    17    18 ar  
    43    18    19 ar  
    44    18    51 1   
    45    19    20 ar  
    46    20    21 1   
    47    20    22 ar  
    48    21    24 2   
    49    21    52 1   
    50    22    23 1   
    51    23    24 1   
    52    24    25 1   
    53    25    26 2   
    54    25    27 1   
    55    27    53 1   
    56    27    54 1   
@<TRIPOS>SUBSTRUCTURE
     1 1NR         1 TEMP              0 ****  ****    0 ROOT
