@<TRIPOS>MOLECULE
1NR
   54    56     1     0     0
SMALL
abcg2


@<TRIPOS>ATOM
      1 CAY          7.8260     2.2200    -0.0420 c3         1 1NR      -0.080767
      2 CAX          6.9090     1.1490     0.5420 c3         1 1NR      -0.123000
      3 CAZ          7.6940    -0.1610     0.6880 c3         1 1NR      -0.080767
      4 CBA          6.4080     1.6120     1.9160 c3         1 1NR      -0.080767
      5 CAA          5.7110     0.9320    -0.3920 c          1 1NR       0.602100
      6 OAC          5.5610     1.5570    -1.4340 o          1 1NR      -0.605100
      7 NAB          4.8180     0.0110     0.0070 ns         1 1NR      -0.511900
      8 CAD          3.6280    -0.3140    -0.7520 c3         1 1NR       0.106000
      9 CAE          2.7340    -1.2500     0.0470 c3         1 1NR      -0.092400
     10 CAF          1.4880    -1.6940    -0.7140 c6         1 1NR      -0.056700
     11 CAK          0.7560    -2.7950     0.0550 c6         1 1NR      -0.102900
     12 CAJ         -0.5420    -3.2150    -0.6280 c6         1 1NR       0.217800
     13 CAG          0.5330    -0.5360    -1.0130 c6         1 1NR      -0.102900
     14 CAH         -0.7400    -1.0570    -1.6670 c6         1 1NR       0.217800
     15 NAI         -1.3890    -2.0460    -0.8290 nh         1 1NR      -0.771300
     16 C6          -2.4760    -1.8350    -0.0660 ca         1 1NR       0.441900
     17 N1          -2.9710    -2.8820     0.5980 nb         1 1NR      -0.284000
     18 C2          -4.0700    -2.7520     1.3280 ca         1 1NR       0.168900
     19 N3          -4.7900    -1.6700     1.5150 nb         1 1NR      -0.179000
     20 C4          -4.3040    -0.5800     0.8980 ca         1 1NR       0.145800
     21 CAR         -4.8760     0.7220     1.0120 cc         1 1NR      -0.225800
     22 C5          -3.1560    -0.5930     0.0970 ca         1 1NR      -0.324000
     23 SAT         -2.7860     1.0020    -0.4660 ss         1 1NR       0.082400
     24 CAS         -4.1570     1.6620     0.3530 cd         1 1NR      -0.131600
     25 CAU         -4.5090     3.1070     0.3010 c          1 1NR       0.639300
     26 OAV         -5.6390     3.4670     0.5870 o          1 1NR      -0.583100
     27 NAW         -3.5320     3.9410    -0.0800 nt         1 1NR      -0.601000
     28 H1           8.2180     1.9340    -1.0180 hc         1 1NR       0.040033
     29 H2           7.3160     3.1780    -0.1500 hc         1 1NR       0.040033
     30 H3           8.6760     2.3710     0.6250 hc         1 1NR       0.040033
     31 H4           8.5840     0.0100     1.2950 hc         1 1NR       0.040033
     32 H5           7.1170    -0.9460     1.1790 hc         1 1NR       0.040033
     33 H6           8.0210    -0.5410    -0.2810 hc         1 1NR       0.040033
     34 H7           5.8160     2.5260     1.8380 hc         1 1NR       0.040033
     35 H8           5.7980     0.8590     2.4170 hc         1 1NR       0.040033
     36 H9           7.2580     1.8240     2.5680 hc         1 1NR       0.040033
     37 H10          4.9870    -0.5070     0.8530 hn         1 1NR       0.312500
     38 H11          3.0980     0.6080    -0.9990 h1         1 1NR       0.050200
     39 H12          3.8990    -0.7880    -1.7020 h1         1 1NR       0.050200
     40 H13          3.3090    -2.1390     0.3270 hc         1 1NR       0.045700
     41 H14          2.4360    -0.7630     0.9820 hc         1 1NR       0.045700
     42 H15          1.8060    -2.1190    -1.6760 hc         1 1NR       0.050700
     43 H16          1.4010    -3.6710     0.1550 hc         1 1NR       0.054200
     44 H17          0.5270    -2.4490     1.0690 hc         1 1NR       0.054200
     45 H18         -0.3300    -3.6540    -1.6070 h1         1 1NR       0.065700
     46 H19         -1.0730    -3.9550    -0.0400 h1         1 1NR       0.065700
     47 H20          0.2810    -0.0110    -0.0860 hc         1 1NR       0.054200
     48 H21          0.9980     0.1930    -1.6810 hc         1 1NR       0.054200
     49 H22         -1.4210    -0.2570    -1.9440 h1         1 1NR       0.065700
     50 H23         -0.4870    -1.5520    -2.6100 h1         1 1NR       0.065700
     51 H24         -4.4070    -3.6550     1.8260 h5         1 1NR       0.048100
     52 H25         -5.7700     0.9300     1.5810 ha         1 1NR       0.239000
     53 H27         -2.5670     3.6630    -0.1470 hn         1 1NR       0.317000
     54 H28         -3.7130     4.9320    -0.1000 hn         1 1NR       0.317000
@<TRIPOS>BOND
     1     1     2 1   
     2     1    28 1   
     3     1    29 1   
     4     1    30 1   
     5     2     3 1   
     6     2     4 1   
     7     2     5 1   
     8     3    31 1   
     9     3    32 1   
    10     3    33 1   
    11     4    34 1   
    12     4    35 1   
    13     4    36 1   
    14     5     6 2   
    15     5     7 1   
    16     7     8 1   
    17     7    37 1   
    18     8     9 1   
    19     8    38 1   
    20     8    39 1   
    21     9    10 1   
    22     9    40 1   
    23     9    41 1   
    24    10    11 1   
    25    10    13 1   
    26    10    42 1   
    27    11    12 1   
    28    11    43 1   
    29    11    44 1   
    30    12    15 1   
    31    12    45 1   
    32    12    46 1   
    33    13    14 1   
    34    13    47 1   
    35    13    48 1   
    36    14    15 1   
    37    14    49 1   
    38    14    50 1   
    39    15    16 1   
    40    16    17 ar  
    41    16    22 ar  
    42    17    18 ar  
    43    18    19 ar  
    44    18    51 1   
    45    19    20 ar  
    46    20    21 1   
    47    20    22 ar  
    48    21    24 2   
    49    21    52 1   
    50    22    23 1   
    51    23    24 1   
    52    24    25 1   
    53    25    26 2   
    54    25    27 1   
    55    27    53 1   
    56    27    54 1   
@<TRIPOS>SUBSTRUCTURE
     1 1NR         1 TEMP              0 ****  ****    0 ROOT
