@<TRIPOS>MOLECULE
1NS
   46    48     1     0     0
SMALL
No Charge or Current Charge


@<TRIPOS>ATOM
      1 C01          5.5610     2.2270     1.0930 c3         1 1NS      -0.387100
      2 S02          6.3790     0.9390     0.1700 s6         1 1NS       1.191100
      3 N03          5.1810    -0.2060    -0.0030 n7         1 1NS      -0.870300
      4 C04          4.0120     0.1060    -0.8410 c3         1 1NS       0.199800
      5 C05          3.0370    -1.0910    -0.8400 c3         1 1NS      -0.080400
      6 C06          1.8070    -0.9460    -1.7970 c6         1 1NS      -0.058700
      7 C07          0.9610    -2.2480    -1.8540 c6         1 1NS      -0.101900
      8 C08          0.1580    -2.4880    -0.5490 c6         1 1NS       0.216300
      9 N09         -0.6900    -1.3050    -0.2240 nh         1 1NS      -0.771300
     10 C10         -1.8560    -1.4580     0.5500 ca         1 1NS       0.439900
     11 C11         -2.9990    -0.6660     0.3530 ca         1 1NS      -0.324000
     12 C12         -4.1000    -0.8860     1.1520 ca         1 1NS       0.146800
     13 C13         -5.2100    -0.0270     0.8360 cc         1 1NS      -0.223800
     14 C14         -4.9150     0.8250    -0.2250 cd         1 1NS      -0.130600
     15 C15         -5.8800     1.8230    -0.7570 c          1 1NS       0.639300
     16 N16         -5.4370     2.5720    -1.7890 nt         1 1NS      -0.602000
     17 O17         -7.0090     1.9870    -0.3210 o          1 1NS      -0.581100
     18 S18         -3.2600     0.5950    -0.8730 ss         1 1NS       0.075400
     19 N19         -4.1230    -1.8280     2.1100 nb         1 1NS      -0.178000
     20 C20         -2.9870    -2.5510     2.2350 ca         1 1NS       0.169900
     21 N21         -1.8560    -2.4170     1.5020 nb         1 1NS      -0.281000
     22 C22          0.0730    -0.0290    -0.1290 c6         1 1NS       0.216300
     23 C23          0.8620     0.2350    -1.4350 c6         1 1NS      -0.101900
     24 O24          6.6990     1.4230    -1.1740 o          1 1NS      -0.525500
     25 O25          7.4140     0.3170     0.9970 o          1 1NS      -0.525500
     26 H1           5.1940     1.7970     2.0310 h1         1 1NS       0.100700
     27 H2           6.3060     3.0050     1.2870 h1         1 1NS       0.100700
     28 H3           4.7430     2.6190     0.4820 h1         1 1NS       0.100700
     29 H4           4.8730    -0.3090     0.9620 hn         1 1NS       0.478000
     30 H5           3.4910     0.9990    -0.4710 h1         1 1NS       0.050700
     31 H6           4.3240     0.3030    -1.8760 h1         1 1NS       0.050700
     32 H7           3.6070    -1.9830    -1.1300 hc         1 1NS       0.054700
     33 H8           2.7060    -1.2680     0.1890 hc         1 1NS       0.054700
     34 H9           2.2220    -0.7650    -2.7990 hc         1 1NS       0.056700
     35 H10          0.2580    -2.1880    -2.6960 hc         1 1NS       0.054700
     36 H11          1.6050    -3.1150    -2.0570 hc         1 1NS       0.054700
     37 H12         -0.4690    -3.3810    -0.6890 h1         1 1NS       0.064700
     38 H13          0.8490    -2.7030     0.2800 h1         1 1NS       0.064700
     39 H14         -6.1650    -0.0360     1.3570 ha         1 1NS       0.239000
     40 H15         -4.5050     2.4350    -2.1480 hn         1 1NS       0.316500
     41 H16         -6.0480     3.2660    -2.1920 hn         1 1NS       0.316500
     42 H17         -2.9820    -3.3220     3.0030 h5         1 1NS       0.049100
     43 H18         -0.6020     0.8200     0.0530 h1         1 1NS       0.064700
     44 H19          0.7680    -0.0670     0.7230 h1         1 1NS       0.064700
     45 H20          1.4190     1.1770    -1.3510 hc         1 1NS       0.054700
     46 H21          0.1450     0.3870    -2.2530 hc         1 1NS       0.054700
@<TRIPOS>BOND
     1     1     2 1   
     2     1    26 1   
     3     1    27 1   
     4     1    28 1   
     5     2     3 1   
     6     2    24 2   
     7     2    25 2   
     8     3     4 1   
     9     3    29 1   
    10     4     5 1   
    11     4    30 1   
    12     4    31 1   
    13     5     6 1   
    14     5    32 1   
    15     5    33 1   
    16     6     7 1   
    17     6    23 1   
    18     6    34 1   
    19     7     8 1   
    20     7    35 1   
    21     7    36 1   
    22     8     9 1   
    23     8    37 1   
    24     8    38 1   
    25     9    10 1   
    26     9    22 1   
    27    10    11 ar  
    28    10    21 ar  
    29    11    12 ar  
    30    11    18 1   
    31    12    13 1   
    32    12    19 ar  
    33    13    14 2   
    34    13    39 1   
    35    14    15 1   
    36    14    18 1   
    37    15    16 1   
    38    15    17 2   
    39    16    40 1   
    40    16    41 1   
    41    19    20 ar  
    42    20    21 ar  
    43    20    42 1   
    44    22    23 1   
    45    22    43 1   
    46    22    44 1   
    47    23    45 1   
    48    23    46 1   
@<TRIPOS>SUBSTRUCTURE
     1 1NS         1 TEMP              0 ****  ****    0 ROOT
