@<TRIPOS>MOLECULE
1NS
   46    48     1     0     0
SMALL
bcc


@<TRIPOS>ATOM
      1 C01          5.7180     2.8290    -0.2820 c3         1 1NS      -0.276300
      2 S02          6.2490     1.1610    -0.6000 s6         1 1NS       1.221900
      3 N03          5.0450     0.1560    -0.1030 n7         1 1NS      -0.815100
      4 C04          3.7550     0.1810    -0.7910 c3         1 1NS       0.199800
      5 C05          2.9360    -1.0300    -0.3680 c3         1 1NS      -0.080400
      6 C06          1.6110    -1.1490    -1.1280 c6         1 1NS      -0.058700
      7 C07          0.9590    -2.5200    -0.9010 c6         1 1NS      -0.101900
      8 C08          0.3090    -2.6510     0.4740 c6         1 1NS       0.216300
      9 N09         -0.6580    -1.5730     0.6550 nh         1 1NS      -0.771300
     10 C10         -1.9790    -1.7960     0.5430 ca         1 1NS       0.768200
     11 C11         -2.9780    -0.8050     0.3220 ca         1 1NS      -0.327700
     12 C12         -4.3130    -1.2240     0.2760 ca         1 1NS       0.475100
     13 C13         -5.2160    -0.1500     0.0130 cc         1 1NS      -0.173800
     14 C14         -4.5750     1.0280    -0.1720 cd         1 1NS      -0.130600
     15 C15         -5.2490     2.3210    -0.4690 c          1 1NS       0.706300
     16 N16         -4.4740     3.2850    -0.9860 nt         1 1NS      -0.669000
     17 O17         -6.4380     2.4570    -0.2310 o          1 1NS      -0.581100
     18 S18         -2.8620     0.8930     0.0070 ss         1 1NS      -0.051500
     19 N19         -4.6920    -2.5040     0.4320 nb         1 1NS      -0.704000
     20 C20         -3.6940    -3.3380     0.6020 ca         1 1NS       0.695900
     21 N21         -2.3990    -3.0580     0.6560 nb         1 1NS      -0.807000
     22 C22         -0.0150    -0.2740     0.5930 c6         1 1NS       0.216300
     23 C23          0.6060    -0.0430    -0.7790 c6         1 1NS      -0.101900
     24 O24          6.3770     0.9990    -2.0410 o          1 1NS      -0.596300
     25 O25          7.3980     0.8840     0.2500 o          1 1NS      -0.596300
     26 H1           5.5490     2.9540     0.7850 h1         1 1NS       0.100700
     27 H2           6.5080     3.5000    -0.6150 h1         1 1NS       0.100700
     28 H3           4.8050     3.0390    -0.8350 h1         1 1NS       0.100700
     29 H4           4.9680     0.1350     0.9090 hn         1 1NS       0.422800
     30 H5           3.2120     1.1080    -0.5850 h1         1 1NS       0.050700
     31 H6           3.9390     0.1370    -1.8640 h1         1 1NS       0.050700
     32 H7           3.5320    -1.9270    -0.5540 hc         1 1NS       0.054700
     33 H8           2.7690    -0.9920     0.7130 hc         1 1NS       0.054700
     34 H9           1.8440    -1.0680    -2.1950 hc         1 1NS       0.056700
     35 H10          0.1900    -2.6860    -1.6610 hc         1 1NS       0.054700
     36 H11          1.7000    -3.3140    -1.0240 hc         1 1NS       0.054700
     37 H12         -0.1880    -3.6110     0.5770 h1         1 1NS       0.064700
     38 H13          1.0520    -2.5790     1.2720 h1         1 1NS       0.064700
     39 H14         -6.2860    -0.2780    -0.0530 ha         1 1NS       0.189000
     40 H15         -3.5480     3.1110    -1.3410 hn         1 1NS       0.316500
     41 H16         -4.8870     4.1700    -1.2330 hn         1 1NS       0.316500
     42 H17         -3.9490    -4.3880     0.7130 h5         1 1NS       0.049100
     43 H18         -0.6990     0.5230     0.8700 h1         1 1NS       0.064700
     44 H19          0.7520    -0.2560     1.3720 h1         1 1NS       0.064700
     45 H20          1.0700     0.9450    -0.8020 hc         1 1NS       0.054700
     46 H21         -0.1890    -0.0260    -1.5300 hc         1 1NS       0.054700
@<TRIPOS>BOND
     1     1     2 1   
     2     1    26 1   
     3     1    27 1   
     4     1    28 1   
     5     2     3 1   
     6     2    24 2   
     7     2    25 2   
     8     3     4 1   
     9     3    29 1   
    10     4     5 1   
    11     4    30 1   
    12     4    31 1   
    13     5     6 1   
    14     5    32 1   
    15     5    33 1   
    16     6     7 1   
    17     6    23 1   
    18     6    34 1   
    19     7     8 1   
    20     7    35 1   
    21     7    36 1   
    22     8     9 1   
    23     8    37 1   
    24     8    38 1   
    25     9    10 1   
    26     9    22 1   
    27    10    11 ar  
    28    10    21 ar  
    29    11    12 ar  
    30    11    18 1   
    31    12    13 1   
    32    12    19 ar  
    33    13    14 2   
    34    13    39 1   
    35    14    15 1   
    36    14    18 1   
    37    15    16 1   
    38    15    17 2   
    39    16    40 1   
    40    16    41 1   
    41    19    20 ar  
    42    20    21 ar  
    43    20    42 1   
    44    22    23 1   
    45    22    43 1   
    46    22    44 1   
    47    23    45 1   
    48    23    46 1   
@<TRIPOS>SUBSTRUCTURE
     1 1NS         1 TEMP              0 ****  ****    0 ROOT
