@<TRIPOS>MOLECULE
1NU
   44    47     1     0     0
SMALL
abcg2


@<TRIPOS>ATOM
      1 C1           5.5430    -0.1240     0.7420 ca         1 1NU       0.245500
      2 C2           6.4240    -0.8860    -0.0000 ca         1 1NU      -0.217500
      3 C3           5.8910    -1.9260    -0.7340 ca         1 1NU       0.248000
      4 C4           4.5400    -2.2160    -0.7500 ca         1 1NU      -0.217500
      5 C5           3.7200    -1.4130     0.0140 ca         1 1NU       0.245500
      6 C6           4.1740    -0.3500     0.7840 ca         1 1NU      -0.238300
      7 C7           3.2360     0.4910     1.6050 c3         1 1NU       0.282100
      8 N8           2.3940     3.1650    -0.7130 nc         1 1NU      -0.693100
      9 C9           2.9540     2.3410     0.1040 cd         1 1NU       0.681100
     10 N10          2.3690     1.3300     0.7690 na         1 1NU      -0.762400
     11 C11          1.0050     1.1300     0.6150 ca         1 1NU       0.319000
     12 C12          0.3240     1.9820    -0.2620 ca         1 1NU      -0.218600
     13 C13         -1.0500     1.8290    -0.4600 ca         1 1NU      -0.022000
     14 C14         -1.7320     0.8520     0.2220 ca         1 1NU       0.058100
     15 C15         -1.0630     0.0100     1.1090 ca         1 1NU      -0.069000
     16 C16          0.2920     0.1440     1.3060 ca         1 1NU      -0.151000
     17 C17          1.0510     3.0400    -0.9790 c          1 1NU       0.711100
     18 O18          0.5000     3.7860    -1.7710 o          1 1NU      -0.522100
     19 F19         -7.0440    -0.1090     0.5900 f          1 1NU      -0.112000
     20 O20         -3.0900     0.7460     0.0680 os         1 1NU      -0.238200
     21 C21         -3.6050    -0.3240    -0.5910 ca         1 1NU       0.181100
     22 C22         -2.8530    -1.1220    -1.4420 ca         1 1NU      -0.187000
     23 C23         -3.4600    -2.1800    -2.1030 ca         1 1NU      -0.048000
     24 C24         -4.8080    -2.4460    -1.9250 ca         1 1NU      -0.148000
     25 C25         -5.5560    -1.6440    -1.0760 ca         1 1NU      -0.032000
     26 C26         -4.9660    -0.5830    -0.4020 ca         1 1NU      -0.228300
     27 C27         -5.7670     0.2830     0.5210 c3         1 1NU       0.369300
     28 F28          6.7120    -2.6830    -1.4630 f          1 1NU      -0.155000
     29 F29         -5.7800     1.5650     0.1300 f          1 1NU      -0.112000
     30 F30         -5.2930     0.2640     1.7740 f          1 1NU      -0.112000
     31 F31          6.0430     0.8910     1.4520 f          1 1NU      -0.161000
     32 F32          2.4100    -1.6670     0.0150 f          1 1NU      -0.161000
     33 H1           7.4840    -0.6710    -0.0040 ha         1 1NU       0.162500
     34 H2           4.1390    -3.0370    -1.3310 ha         1 1NU       0.162500
     35 H3           2.6250    -0.1320     2.2490 h1         1 1NU       0.080200
     36 H4           3.7890     1.1460     2.2750 h1         1 1NU       0.080200
     37 H5           4.0150     2.4590     0.2990 h5         1 1NU       0.048800
     38 H6          -1.5690     2.4880    -1.1430 ha         1 1NU       0.160000
     39 H7          -1.6080    -0.7510     1.6540 ha         1 1NU       0.135000
     40 H8           0.7700    -0.5210     2.0090 ha         1 1NU       0.124000
     41 H9          -1.8030    -0.9220    -1.6030 ha         1 1NU       0.133000
     42 H10         -2.8650    -2.7940    -2.7660 ha         1 1NU       0.119000
     43 H11         -5.2790    -3.2710    -2.4400 ha         1 1NU       0.124000
     44 H12         -6.6070    -1.8580    -0.9430 ha         1 1NU       0.134000
@<TRIPOS>BOND
     1     1     2 ar  
     2     1     6 ar  
     3     1    31 1   
     4     2     3 ar  
     5     2    33 1   
     6     3     4 ar  
     7     3    28 1   
     8     4     5 ar  
     9     4    34 1   
    10     5     6 ar  
    11     5    32 1   
    12     6     7 1   
    13     7    10 1   
    14     7    35 1   
    15     7    36 1   
    16     8     9 2   
    17     8    17 1   
    18     9    10 1   
    19     9    37 1   
    20    10    11 1   
    21    11    12 ar  
    22    11    16 ar  
    23    12    13 ar  
    24    12    17 1   
    25    13    14 ar  
    26    13    38 1   
    27    14    15 ar  
    28    14    20 1   
    29    15    16 ar  
    30    15    39 1   
    31    16    40 1   
    32    17    18 2   
    33    19    27 1   
    34    20    21 1   
    35    21    22 ar  
    36    21    26 ar  
    37    22    23 ar  
    38    22    41 1   
    39    23    24 ar  
    40    23    42 1   
    41    24    25 ar  
    42    24    43 1   
    43    25    26 ar  
    44    25    44 1   
    45    26    27 1   
    46    27    29 1   
    47    27    30 1   
@<TRIPOS>SUBSTRUCTURE
     1 1NU         1 TEMP              0 ****  ****    0 ROOT
