@<TRIPOS>MOLECULE
1NU
   44    47     1     0     0
SMALL
No Charge or Current Charge


@<TRIPOS>ATOM
      1 C1           4.1650    -0.1130    -0.4400 ca         1 1NU       0.245500
      2 C2           4.3590    -1.0320    -1.4800 ca         1 1NU      -0.217500
      3 C3           4.0050    -2.3720    -1.2990 ca         1 1NU       0.248000
      4 C4           3.4680    -2.8020    -0.0820 ca         1 1NU      -0.217500
      5 C5           3.2740    -1.8830     0.9570 ca         1 1NU       0.245500
      6 C6           3.6050    -0.5220     0.7900 ca         1 1NU      -0.238300
      7 C7           3.3830     0.4810     1.9200 c3         1 1NU       0.282100
      8 N8           2.5000     3.8840     0.8320 nc         1 1NU      -0.693100
      9 C9           2.9970     2.9580     1.6300 cd         1 1NU       0.681100
     10 N10          2.5470     1.6340     1.5130 na         1 1NU      -0.762400
     11 C11          1.2510     1.4670     1.0030 ca         1 1NU       0.319000
     12 C12          0.6770     2.4430     0.1950 ca         1 1NU      -0.218600
     13 C13         -0.5950     2.2540    -0.3900 ca         1 1NU      -0.022000
     14 C14         -1.3060     1.0700    -0.1510 ca         1 1NU       0.058100
     15 C15         -0.7610     0.0950     0.7020 ca         1 1NU      -0.069000
     16 C16          0.5080     0.2960     1.2730 ca         1 1NU      -0.151000
     17 C17          1.4210     3.6990     0.0270 c          1 1NU       0.711100
     18 O18          1.0710     4.5660    -0.7590 o          1 1NU      -0.522100
     19 F19         -6.4790    -0.2250     0.2970 f          1 1NU      -0.112000
     20 O20         -2.5490     0.9090    -0.7220 os         1 1NU      -0.238200
     21 C21         -3.0410    -0.3220    -1.0970 ca         1 1NU       0.181100
     22 C22         -2.2270    -1.1990    -1.8390 ca         1 1NU      -0.187000
     23 C23         -2.7150    -2.4520    -2.2380 ca         1 1NU      -0.048000
     24 C24         -4.0230    -2.8270    -1.8980 ca         1 1NU      -0.148000
     25 C25         -4.8450    -1.9530    -1.1660 ca         1 1NU      -0.032000
     26 C26         -4.3630    -0.6870    -0.7590 ca         1 1NU      -0.228300
     27 C27         -5.2470     0.2750     0.0450 c3         1 1NU       0.369300
     28 F28          4.1930    -3.2580    -2.3010 f          1 1NU      -0.155000
     29 F29         -5.4340     1.4460    -0.6060 f          1 1NU      -0.112000
     30 F30         -4.7000     0.5710     1.2470 f          1 1NU      -0.112000
     31 F31          4.5420     1.1700    -0.6340 f          1 1NU      -0.161000
     32 F32          2.7660    -2.3270     2.1270 f          1 1NU      -0.161000
     33 H1           4.7890    -0.7040    -2.4220 ha         1 1NU       0.162500
     34 H2           3.2040    -3.8450     0.0580 ha         1 1NU       0.162500
     35 H3           2.9290    -0.0010     2.7960 h1         1 1NU       0.080200
     36 H4           4.3670     0.8450     2.2500 h1         1 1NU       0.080200
     37 H5           3.8810     3.1410     2.2300 h5         1 1NU       0.048800
     38 H6          -1.0370     3.0230    -1.0200 ha         1 1NU       0.160000
     39 H7          -1.3140    -0.8140     0.9270 ha         1 1NU       0.135000
     40 H8           0.9000    -0.4720     1.9300 ha         1 1NU       0.124000
     41 H9          -1.2160    -0.9050    -2.1100 ha         1 1NU       0.133000
     42 H10         -2.0830    -3.1290    -2.8090 ha         1 1NU       0.119000
     43 H11         -4.4050    -3.7980    -2.2060 ha         1 1NU       0.124000
     44 H12         -5.8560    -2.2720    -0.9200 ha         1 1NU       0.134000
@<TRIPOS>BOND
     1     1     2 ar  
     2     1     6 ar  
     3     1    31 1   
     4     2     3 ar  
     5     2    33 1   
     6     3     4 ar  
     7     3    28 1   
     8     4     5 ar  
     9     4    34 1   
    10     5     6 ar  
    11     5    32 1   
    12     6     7 1   
    13     7    10 1   
    14     7    35 1   
    15     7    36 1   
    16     8     9 2   
    17     8    17 1   
    18     9    10 1   
    19     9    37 1   
    20    10    11 1   
    21    11    12 ar  
    22    11    16 ar  
    23    12    13 ar  
    24    12    17 1   
    25    13    14 ar  
    26    13    38 1   
    27    14    15 ar  
    28    14    20 1   
    29    15    16 ar  
    30    15    39 1   
    31    16    40 1   
    32    17    18 2   
    33    19    27 1   
    34    20    21 1   
    35    21    22 ar  
    36    21    26 ar  
    37    22    23 ar  
    38    22    41 1   
    39    23    24 ar  
    40    23    42 1   
    41    24    25 ar  
    42    24    43 1   
    43    25    26 ar  
    44    25    44 1   
    45    26    27 1   
    46    27    29 1   
    47    27    30 1   
@<TRIPOS>SUBSTRUCTURE
     1 1NU         1 TEMP              0 ****  ****    0 ROOT
