@<TRIPOS>MOLECULE
1NV
   48    51     1     0     0
SMALL
No Charge or Current Charge


@<TRIPOS>ATOM
      1 C1           4.7360     0.4270     0.3810 ca         1 1NV       0.245500
      2 C2           4.8340     1.5080     1.2660 ca         1 1NV      -0.218000
      3 C3           4.3390     2.7610     0.8920 ca         1 1NV       0.248000
      4 C4           3.7560     2.9410    -0.3670 ca         1 1NV      -0.218000
      5 C5           3.6590     1.8600    -1.2510 ca         1 1NV       0.245500
      6 C6           4.1340     0.5830    -0.8860 ca         1 1NV      -0.239300
      7 C7           4.0170    -0.5980    -1.8480 c3         1 1NV       0.282100
      8 N8           3.5040    -3.8690    -0.2410 nc         1 1NV      -0.692100
      9 C9           3.8980    -3.0280    -1.1790 cd         1 1NV       0.682100
     10 N10          3.3100    -1.7580    -1.2550 na         1 1NV      -0.762400
     11 C11          2.0040    -1.6520    -0.7530 ca         1 1NV       0.322000
     12 C12          1.5390    -2.5490     0.2040 ca         1 1NV      -0.219600
     13 C13          0.2560    -2.4080     0.7760 ca         1 1NV      -0.019000
     14 C14         -0.5790    -1.3560     0.3740 ca         1 1NV       0.054100
     15 C15         -0.1420    -0.4690    -0.6260 ca         1 1NV      -0.067000
     16 C16          1.1400    -0.6200    -1.1830 ca         1 1NV      -0.152000
     17 C17          2.4130    -3.6790     0.5460 c          1 1NV       0.711100
     18 O18          2.1590    -4.4480     1.4600 o          1 1NV      -0.520100
     19 F19         -5.3080    -0.4990    -1.1340 f          1 1NV      -0.107667
     20 O20         -1.8310    -1.2430     0.9380 os         1 1NV      -0.236200
     21 C21         -2.4740    -0.0340     1.0860 ca         1 1NV       0.179100
     22 C22         -1.7730     1.0050     1.7200 ca         1 1NV      -0.179000
     23 C23         -2.3820     2.2420     1.9360 ca         1 1NV      -0.049000
     24 C24         -3.7130     2.4330     1.5520 ca         1 1NV      -0.131000
     25 C25         -4.4600     1.4010     0.9330 ca         1 1NV      -0.070600
     26 C26         -3.8190     0.1450     0.6540 ca         1 1NV      -0.197300
     27 C27         -4.5530    -0.9820    -0.1210 c3         1 1NV       0.371300
     28 F28          4.4340     3.8040     1.7440 f          1 1NV      -0.154000
     29 F29         -5.3710    -1.6900     0.6910 f          1 1NV      -0.107667
     30 F30         -3.7310    -1.8790    -0.7100 f          1 1NV      -0.107667
     31 F31          5.2480    -0.7650     0.7590 f          1 1NV      -0.161500
     32 F32          3.1040     2.0650    -2.4660 f          1 1NV      -0.161500
     33 C33         -5.9300     1.6820     0.6380 c          1 1NV       0.619700
     34 O34         -6.8210     0.8600     0.7790 o          1 1NV      -0.572100
     35 N35         -6.2640     2.9460     0.2940 nt         1 1NV      -0.599000
     36 H1           5.2980     1.3750     2.2380 ha         1 1NV       0.162500
     37 H2           3.3820     3.9180    -0.6580 ha         1 1NV       0.162500
     38 H3           3.5110    -0.3060    -2.7780 h1         1 1NV       0.079700
     39 H4           5.0330    -0.9030    -2.1360 h1         1 1NV       0.079700
     40 H5           4.7950    -3.2080    -1.7600 h5         1 1NV       0.048800
     41 H6          -0.1010    -3.1150     1.5230 ha         1 1NV       0.162000
     42 H7          -0.7890     0.3320    -0.9770 ha         1 1NV       0.134000
     43 H8           1.4470     0.0750    -1.9550 ha         1 1NV       0.125000
     44 H9          -0.7500     0.8470     2.0520 ha         1 1NV       0.135000
     45 H10         -1.8330     3.0430     2.4280 ha         1 1NV       0.123000
     46 H11         -4.1750     3.3910     1.7820 ha         1 1NV       0.129000
     47 H12         -5.5450     3.6430     0.1720 hn         1 1NV       0.319500
     48 H13         -7.2320     3.1700     0.1210 hn         1 1NV       0.319500
@<TRIPOS>BOND
     1     1     2 ar  
     2     1     6 ar  
     3     1    31 1   
     4     2     3 ar  
     5     2    36 1   
     6     3     4 ar  
     7     3    28 1   
     8     4     5 ar  
     9     4    37 1   
    10     5     6 ar  
    11     5    32 1   
    12     6     7 1   
    13     7    10 1   
    14     7    38 1   
    15     7    39 1   
    16     8     9 2   
    17     8    17 1   
    18     9    10 1   
    19     9    40 1   
    20    10    11 1   
    21    11    12 ar  
    22    11    16 ar  
    23    12    13 ar  
    24    12    17 1   
    25    13    14 ar  
    26    13    41 1   
    27    14    15 ar  
    28    14    20 1   
    29    15    16 ar  
    30    15    42 1   
    31    16    43 1   
    32    17    18 2   
    33    19    27 1   
    34    20    21 1   
    35    21    22 ar  
    36    21    26 ar  
    37    22    23 ar  
    38    22    44 1   
    39    23    24 ar  
    40    23    45 1   
    41    24    25 ar  
    42    24    46 1   
    43    25    26 ar  
    44    25    33 1   
    45    26    27 1   
    46    27    29 1   
    47    27    30 1   
    48    33    34 2   
    49    33    35 1   
    50    35    47 1   
    51    35    48 1   
@<TRIPOS>SUBSTRUCTURE
     1 1NV         1 TEMP              0 ****  ****    0 ROOT
