@<TRIPOS>MOLECULE
1NV
   48    51     1     0     0
SMALL
bcc


@<TRIPOS>ATOM
      1 C1           6.2100     0.2980    -0.7280 ca         1 1NV       0.210400
      2 C2           7.0300     1.1980    -0.0750 ca         1 1NV      -0.236000
      3 C3           6.4200     2.2640     0.5540 ca         1 1NV       0.212900
      4 C4           5.0510     2.4510     0.5500 ca         1 1NV      -0.236000
      5 C5           4.2950     1.5150    -0.1220 ca         1 1NV       0.210400
      6 C6           4.8270     0.4140    -0.7800 ca         1 1NV      -0.239300
      7 C7           3.9580    -0.5780    -1.5010 c3         1 1NV       0.282100
      8 N8           3.2140    -2.9740     1.1330 nc         1 1NV      -0.692100
      9 C9           3.7480    -2.2270     0.2290 cd         1 1NV       0.682100
     10 N10          3.1200    -1.3540    -0.5780 na         1 1NV      -0.624000
     11 C11          1.7430    -1.2280    -0.4860 ca         1 1NV       0.183600
     12 C12          1.0880    -2.0040     0.4780 ca         1 1NV      -0.219600
     13 C13         -0.2980    -1.9200     0.6200 ca         1 1NV      -0.037000
     14 C14         -1.0160    -1.0860    -0.1990 ca         1 1NV       0.054100
     15 C15         -0.3740    -0.3210    -1.1720 ca         1 1NV      -0.085000
     16 C16          0.9920    -0.3880    -1.3170 ca         1 1NV      -0.170000
     17 C17          1.8580    -2.9080     1.3470 c          1 1NV       0.711100
     18 O18          1.3290    -3.5790     2.2170 o          1 1NV      -0.520100
     19 F19         -6.3460    -0.5950    -0.7410 f          1 1NV      -0.228967
     20 O20         -2.3840    -1.0470    -0.0930 os         1 1NV      -0.236200
     21 C21         -2.9790     0.0200     0.4930 ca         1 1NV       0.179100
     22 C22         -2.2810     0.9460     1.2540 ca         1 1NV      -0.197000
     23 C23         -2.9660     1.9970     1.8390 ca         1 1NV      -0.067000
     24 C24         -4.3360     2.1200     1.6830 ca         1 1NV      -0.149000
     25 C25         -5.0400     1.1850     0.9310 ca         1 1NV      -0.070600
     26 C26         -4.3640     0.1340     0.3140 ca         1 1NV      -0.197300
     27 C27         -5.0490    -0.8670    -0.5700 c3         1 1NV       0.735200
     28 F28          7.1830     3.1490     1.1950 f          1 1NV      -0.118900
     29 F29         -4.9790    -2.1100    -0.0780 f          1 1NV      -0.228967
     30 F30         -4.5110    -0.8980    -1.7960 f          1 1NV      -0.228967
     31 F31          6.7860    -0.7420    -1.3350 f          1 1NV      -0.126400
     32 F32          2.9690     1.6680    -0.1410 f          1 1NV      -0.126400
     33 C33         -6.5400     1.3430     0.9360 c          1 1NV       0.686700
     34 O34         -7.2290     0.6930     1.7020 o          1 1NV      -0.572100
     35 N35         -6.9970     2.2960     0.1190 nt         1 1NV      -0.666000
     36 H1           8.1040     1.0660    -0.0590 ha         1 1NV       0.180500
     37 H2           4.5900     3.2940     1.0470 ha         1 1NV       0.180500
     38 H3           3.3280    -0.0790    -2.2290 h1         1 1NV       0.079700
     39 H4           4.5630    -1.2790    -2.0710 h1         1 1NV       0.079700
     40 H5           4.8200    -2.2950     0.0790 h5         1 1NV       0.048800
     41 H6          -0.7970    -2.5180     1.3710 ha         1 1NV       0.180000
     42 H7          -0.9490     0.3240    -1.8250 ha         1 1NV       0.152000
     43 H8           1.4510     0.2100    -2.0900 ha         1 1NV       0.143000
     44 H9          -1.2140     0.8530     1.4010 ha         1 1NV       0.153000
     45 H10         -2.4220     2.7230     2.4280 ha         1 1NV       0.141000
     46 H11         -4.8630     2.9390     2.1520 ha         1 1NV       0.147000
     47 H12         -6.3880     2.7880    -0.5120 hn         1 1NV       0.319500
     48 H13         -7.9810     2.5110     0.0800 hn         1 1NV       0.319500
@<TRIPOS>BOND
     1     1     2 ar  
     2     1     6 ar  
     3     1    31 1   
     4     2     3 ar  
     5     2    36 1   
     6     3     4 ar  
     7     3    28 1   
     8     4     5 ar  
     9     4    37 1   
    10     5     6 ar  
    11     5    32 1   
    12     6     7 1   
    13     7    10 1   
    14     7    38 1   
    15     7    39 1   
    16     8     9 2   
    17     8    17 1   
    18     9    10 1   
    19     9    40 1   
    20    10    11 1   
    21    11    12 ar  
    22    11    16 ar  
    23    12    13 ar  
    24    12    17 1   
    25    13    14 ar  
    26    13    41 1   
    27    14    15 ar  
    28    14    20 1   
    29    15    16 ar  
    30    15    42 1   
    31    16    43 1   
    32    17    18 2   
    33    19    27 1   
    34    20    21 1   
    35    21    22 ar  
    36    21    26 ar  
    37    22    23 ar  
    38    22    44 1   
    39    23    24 ar  
    40    23    45 1   
    41    24    25 ar  
    42    24    46 1   
    43    25    26 ar  
    44    25    33 1   
    45    26    27 1   
    46    27    29 1   
    47    27    30 1   
    48    33    34 2   
    49    33    35 1   
    50    35    47 1   
    51    35    48 1   
@<TRIPOS>SUBSTRUCTURE
     1 1NV         1 TEMP              0 ****  ****    0 ROOT
