@<TRIPOS>MOLECULE
1NW
   57    61     1     0     0
SMALL
No Charge or Current Charge


@<TRIPOS>ATOM
      1 C1           5.8100     1.0440     0.4120 ca         1 1NW       0.245500
      2 C2           5.6810     2.1380     1.2770 ca         1 1NW      -0.217500
      3 C3           4.9390     3.2550     0.8810 ca         1 1NW       0.248000
      4 C4           4.3340     3.2890    -0.3790 ca         1 1NW      -0.217500
      5 C5           4.4640     2.1950    -1.2440 ca         1 1NW       0.245500
      6 C6           5.1910     1.0500    -0.8570 ca         1 1NW      -0.240300
      7 C7           5.3220    -0.1470    -1.7970 c3         1 1NW       0.282100
      8 N8           5.4880    -3.4220    -0.1300 nc         1 1NW      -0.691100
      9 C9           5.7020    -2.5370    -1.0860 cd         1 1NW       0.682100
     10 N10          4.8660    -1.4150    -1.1830 na         1 1NW      -0.762400
     11 C11          3.5660    -1.5700    -0.6800 ca         1 1NW       0.326000
     12 C12          3.2940    -2.5240     0.2960 ca         1 1NW      -0.220600
     13 C13          2.0080    -2.6390     0.8690 ca         1 1NW      -0.020000
     14 C14          0.9760    -1.7890     0.4490 ca         1 1NW       0.049100
     15 C15          1.2230    -0.8520    -0.5710 ca         1 1NW      -0.060000
     16 C16          2.5090    -0.7470    -1.1280 ca         1 1NW      -0.154000
     17 C17          4.3810    -3.4440     0.6580 c          1 1NW       0.711100
     18 O18          4.2890    -4.2300     1.5880 o          1 1NW      -0.519100
     19 F19         -3.8550    -1.9600    -1.0290 f          1 1NW      -0.106000
     20 O20         -0.2730    -1.9240     1.0130 os         1 1NW      -0.236200
     21 C21         -1.1500    -0.8690     1.1430 ca         1 1NW       0.185100
     22 C22         -0.6760     0.3040     1.7510 ca         1 1NW      -0.179000
     23 C23         -1.5260     1.3940     1.9480 ca         1 1NW      -0.046000
     24 C24         -2.8690     1.3000     1.5710 ca         1 1NW      -0.131000
     25 C25         -3.3900     0.1230     0.9760 ca         1 1NW      -0.074600
     26 C26         -2.5040    -0.9790     0.7170 ca         1 1NW      -0.197300
     27 C27         -2.9900    -2.2500    -0.0300 c3         1 1NW       0.371300
     28 F28          4.8160     4.3100     1.7150 f          1 1NW      -0.154000
     29 F29         -3.6150    -3.1080     0.8080 f          1 1NW      -0.106000
     30 F30         -2.0030    -2.9530    -0.6300 f          1 1NW      -0.106000
     31 F31          6.5550    -0.0100     0.8110 f          1 1NW      -0.161500
     32 F32          3.8810     2.2600    -2.4610 f          1 1NW      -0.161500
     33 C33         -4.8870     0.0830     0.6870 c          1 1NW       0.622700
     34 O34         -5.5700    -0.9090     0.9140 o          1 1NW      -0.548100
     35 N35         -5.4220     1.2870     0.2400 ns         1 1NW      -0.132000
     36 C36         -6.7480     1.6740    -0.1150 ca         1 1NW      -0.073000
     37 C37         -6.9880     3.0310    -0.4260 ca         1 1NW       0.287900
     38 N38         -8.2000     3.5190    -0.7790 nb         1 1NW      -0.644000
     39 C39         -9.2350     2.6510    -0.8390 ca         1 1NW       0.306900
     40 C40         -9.0960     1.2820    -0.5540 ca         1 1NW      -0.136000
     41 C41         -7.8370     0.7770    -0.1860 ca         1 1NW      -0.095000
     42 H1           6.1600     2.1210     2.2510 ha         1 1NW       0.162500
     43 H2           3.7680     4.1630    -0.6870 ha         1 1NW       0.162500
     44 H3           4.7690     0.0190    -2.7320 h1         1 1NW       0.079700
     45 H4           6.3790    -0.2410    -2.0810 h1         1 1NW       0.079700
     46 H5           6.6170    -2.5400    -1.6660 h5         1 1NW       0.049800
     47 H6           1.8040    -3.3890     1.6300 ha         1 1NW       0.162000
     48 H7           0.4260    -0.2080    -0.9350 ha         1 1NW       0.135000
     49 H8           2.6680    -0.0190    -1.9150 ha         1 1NW       0.126000
     50 H9           0.3590     0.3670     2.0790 ha         1 1NW       0.136000
     51 H10         -1.1520     2.3000     2.4200 ha         1 1NW       0.125000
     52 H11         -3.5170     2.1470     1.7880 ha         1 1NW       0.132000
     53 H12         -4.7370     2.0230     0.1290 hn         1 1NW       0.159000
     54 H13         -6.1760     3.7570    -0.3880 h4         1 1NW       0.013100
     55 H14        -10.2010     3.0640    -1.1260 h4         1 1NW       0.022100
     56 H15         -9.9600     0.6260    -0.6200 ha         1 1NW       0.126000
     57 H16         -7.7340    -0.2840     0.0260 ha         1 1NW       0.154000
@<TRIPOS>BOND
     1     1     2 ar  
     2     1     6 ar  
     3     1    31 1   
     4     2     3 ar  
     5     2    42 1   
     6     3     4 ar  
     7     3    28 1   
     8     4     5 ar  
     9     4    43 1   
    10     5     6 ar  
    11     5    32 1   
    12     6     7 1   
    13     7    10 1   
    14     7    44 1   
    15     7    45 1   
    16     8     9 2   
    17     8    17 1   
    18     9    10 1   
    19     9    46 1   
    20    10    11 1   
    21    11    12 ar  
    22    11    16 ar  
    23    12    13 ar  
    24    12    17 1   
    25    13    14 ar  
    26    13    47 1   
    27    14    15 ar  
    28    14    20 1   
    29    15    16 ar  
    30    15    48 1   
    31    16    49 1   
    32    17    18 2   
    33    19    27 1   
    34    20    21 1   
    35    21    22 ar  
    36    21    26 ar  
    37    22    23 ar  
    38    22    50 1   
    39    23    24 ar  
    40    23    51 1   
    41    24    25 ar  
    42    24    52 1   
    43    25    26 ar  
    44    25    33 1   
    45    26    27 1   
    46    27    29 1   
    47    27    30 1   
    48    33    34 2   
    49    33    35 1   
    50    35    36 1   
    51    35    53 1   
    52    36    37 ar  
    53    36    41 ar  
    54    37    38 ar  
    55    37    54 1   
    56    38    39 ar  
    57    39    40 ar  
    58    39    55 1   
    59    40    41 ar  
    60    40    56 1   
    61    41    57 1   
@<TRIPOS>SUBSTRUCTURE
     1 1NW         1 TEMP              0 ****  ****    0 ROOT
