@<TRIPOS>MOLECULE
1NW
   57    61     1     0     0
SMALL
abcg2


@<TRIPOS>ATOM
      1 C1           7.6840     0.6820    -0.3980 ca         1 1NW       0.245500
      2 C2           8.3970     1.6500     0.2810 ca         1 1NW      -0.217500
      3 C3           7.6790     2.6990     0.8180 ca         1 1NW       0.248000
      4 C4           6.3060     2.8050     0.7000 ca         1 1NW      -0.217500
      5 C5           5.6600     1.8040     0.0060 ca         1 1NW       0.245500
      6 C6           6.3060     0.7150    -0.5640 ca         1 1NW      -0.240300
      7 C7           5.5520    -0.3510    -1.3080 c3         1 1NW       0.282100
      8 N8           4.7010    -2.6390     1.3880 nc         1 1NW      -0.691100
      9 C9           5.2730    -1.9040     0.4980 cd         1 1NW       0.682100
     10 N10          4.6760    -1.1260    -0.4220 na         1 1NW      -0.762400
     11 C11          3.2910    -1.1000    -0.4780 ca         1 1NW       0.326000
     12 C12          2.5940    -1.8750     0.4580 ca         1 1NW      -0.220600
     13 C13          1.1990    -1.9010     0.4430 ca         1 1NW      -0.020000
     14 C14          0.5150    -1.1750    -0.5010 ca         1 1NW       0.049100
     15 C15          1.2000    -0.4040    -1.4370 ca         1 1NW      -0.060000
     16 C16          2.5760    -0.3630    -1.4290 ca         1 1NW      -0.154000
     17 C17          3.3280    -2.6690     1.4550 c          1 1NW       0.711100
     18 O18          2.7590    -3.3340     2.3030 o          1 1NW      -0.519100
     19 F19         -4.8530    -1.6690    -0.9240 f          1 1NW      -0.106000
     20 O20         -0.8540    -1.2560    -0.5630 os         1 1NW      -0.236200
     21 C21         -1.6170    -0.3660     0.1110 ca         1 1NW       0.185100
     22 C22         -1.0870     0.6820     0.8510 ca         1 1NW      -0.179000
     23 C23         -1.9410     1.5500     1.5090 ca         1 1NW      -0.046000
     24 C24         -3.3120     1.3710     1.4510 ca         1 1NW      -0.131000
     25 C25         -3.8440     0.3160     0.7190 ca         1 1NW      -0.074600
     26 C26         -3.0030    -0.5540     0.0270 ca         1 1NW      -0.197300
     27 C27         -3.5200    -1.6760    -0.8270 c3         1 1NW       0.371300
     28 F28          8.3360     3.6520     1.4790 f          1 1NW      -0.154000
     29 F29         -3.1740    -2.8750    -0.3470 f          1 1NW      -0.106000
     30 F30         -3.0580    -1.6040    -2.0810 f          1 1NW      -0.106000
     31 F31          8.3630    -0.3440    -0.9190 f          1 1NW      -0.161500
     32 F32          4.3340     1.8770    -0.1240 f          1 1NW      -0.161500
     33 C33         -5.3340     0.1280     0.8300 c          1 1NW       0.622700
     34 O34         -5.8050    -0.6650     1.6190 o          1 1NW      -0.548100
     35 N35         -6.0420     0.9710     0.0460 ns         1 1NW      -0.132000
     36 C36         -7.4260     1.1210    -0.0420 ca         1 1NW      -0.073000
     37 C37         -7.9000     2.1600    -0.8490 ca         1 1NW       0.287900
     38 N38         -9.1810     2.4210    -1.0340 nb         1 1NW      -0.644000
     39 C39        -10.0750     1.6550    -0.4170 ca         1 1NW       0.306900
     40 C40         -9.7090     0.6000     0.4000 ca         1 1NW      -0.136000
     41 C41         -8.3660     0.3180     0.5980 ca         1 1NW      -0.095000
     42 H1           9.4720     1.5840     0.3850 ha         1 1NW       0.162500
     43 H2           5.7610     3.6350     1.1280 ha         1 1NW       0.162500
     44 H3           4.9650     0.0850    -2.1100 h1         1 1NW       0.079700
     45 H4           6.2360    -1.0420    -1.7940 h1         1 1NW       0.079700
     46 H5           6.3580    -1.8980     0.4630 h5         1 1NW       0.049800
     47 H6           0.6670    -2.5020     1.1690 ha         1 1NW       0.162000
     48 H7           0.6520     0.1570    -2.1840 ha         1 1NW       0.135000
     49 H8           3.0700     0.2340    -2.1790 ha         1 1NW       0.126000
     50 H9          -0.0180     0.8310     0.9170 ha         1 1NW       0.136000
     51 H10         -1.5260     2.3700     2.0780 ha         1 1NW       0.125000
     52 H11         -3.9700     2.0460     1.9830 ha         1 1NW       0.132000
     53 H12         -5.5030     1.5870    -0.5460 hn         1 1NW       0.159000
     54 H13         -7.1920     2.8020    -1.3660 h4         1 1NW       0.013100
     55 H14        -11.1200     1.8910    -0.5830 h4         1 1NW       0.022100
     56 H15        -10.4660    -0.0050     0.8800 ha         1 1NW       0.126000
     57 H16         -8.0760    -0.5060     1.2300 ha         1 1NW       0.154000
@<TRIPOS>BOND
     1     1     2 ar  
     2     1     6 ar  
     3     1    31 1   
     4     2     3 ar  
     5     2    42 1   
     6     3     4 ar  
     7     3    28 1   
     8     4     5 ar  
     9     4    43 1   
    10     5     6 ar  
    11     5    32 1   
    12     6     7 1   
    13     7    10 1   
    14     7    44 1   
    15     7    45 1   
    16     8     9 2   
    17     8    17 1   
    18     9    10 1   
    19     9    46 1   
    20    10    11 1   
    21    11    12 ar  
    22    11    16 ar  
    23    12    13 ar  
    24    12    17 1   
    25    13    14 ar  
    26    13    47 1   
    27    14    15 ar  
    28    14    20 1   
    29    15    16 ar  
    30    15    48 1   
    31    16    49 1   
    32    17    18 2   
    33    19    27 1   
    34    20    21 1   
    35    21    22 ar  
    36    21    26 ar  
    37    22    23 ar  
    38    22    50 1   
    39    23    24 ar  
    40    23    51 1   
    41    24    25 ar  
    42    24    52 1   
    43    25    26 ar  
    44    25    33 1   
    45    26    27 1   
    46    27    29 1   
    47    27    30 1   
    48    33    34 2   
    49    33    35 1   
    50    35    36 1   
    51    35    53 1   
    52    36    37 ar  
    53    36    41 ar  
    54    37    38 ar  
    55    37    54 1   
    56    38    39 ar  
    57    39    40 ar  
    58    39    55 1   
    59    40    41 ar  
    60    40    56 1   
    61    41    57 1   
@<TRIPOS>SUBSTRUCTURE
     1 1NW         1 TEMP              0 ****  ****    0 ROOT
