@<TRIPOS>MOLECULE
1NX
   56    60     1     0     0
SMALL
No Charge or Current Charge


@<TRIPOS>ATOM
      1 C1          -3.6810     2.1580    -1.1670 c3         1 1NX      -0.109100
      2 C2          -3.7100     1.5530     0.2580 c3         1 1NX       0.144700
      3 N4          -3.2970     0.1540     0.2300 ns         1 1NX      -0.511900
      4 C5          -2.0020    -0.2890     0.1020 c          1 1NX       0.650300
      5 O6          -1.0580     0.4840     0.0150 o          1 1NX      -0.603100
      6 C7          -1.8930    -1.7640     0.0980 cc         1 1NX      -0.330000
      7 C8          -2.9320    -2.6840     0.2640 cd         1 1NX      -0.105100
      8 N9          -2.3900    -3.9960     0.2520 na         1 1NX      -0.298400
      9 C10         -1.0230    -3.8790     0.0710 ca         1 1NX       0.269500
     10 N11         -0.0870    -4.8580     0.0010 nb         1 1NX      -0.615000
     11 C12          1.1930    -4.4020    -0.1920 ca         1 1NX       0.303900
     12 C13          1.5170    -3.0100    -0.3210 ca         1 1NX       0.523300
     13 N14          0.5490    -2.0540    -0.2550 nb         1 1NX      -0.653000
     14 C15         -0.6940    -2.5290    -0.0430 ca         1 1NX       0.387800
     15 O16          2.8370    -2.6400    -0.5300 os         1 1NX      -0.362400
     16 C17          3.2230    -1.3430    -0.7990 ca         1 1NX       0.098100
     17 C18          2.8560    -0.2800     0.0550 ca         1 1NX      -0.074000
     18 C19          3.1840     1.0320    -0.3120 ca         1 1NX      -0.099300
     19 C20          2.7910     2.2890     0.4120 c5         1 1NX       0.157000
     20 N22          1.3670     2.3730     0.7550 ns         1 1NX      -0.502900
     21 C23          0.9550     3.3560     1.6280 c          1 1NX       0.602100
     22 C24         -0.5450     3.3790     1.8890 c3         1 1NX      -0.180100
     23 O25          1.7190     4.1500     2.1590 o          1 1NX      -0.622100
     24 C26          3.0000     3.3510    -0.7440 c5         1 1NX      -0.095400
     25 C27          4.1450     2.7620    -1.6550 c5         1 1NX      -0.031100
     26 C28          3.9130     1.2880    -1.4560 ca         1 1NX      -0.079300
     27 C29          4.3400     0.2410    -2.2900 ca         1 1NX      -0.091000
     28 C30          3.9830    -1.0820    -1.9580 ca         1 1NX      -0.107000
     29 C31         -5.0500     1.6370     1.0000 cx         1 1NX      -0.145700
     30 C32         -6.0490     2.7580     0.8040 cx         1 1NX      -0.127400
     31 C33         -6.3790     1.3580     0.3310 cx         1 1NX      -0.127400
     32 H11C        -2.6810     2.0620    -1.6040 hc         1 1NX       0.043367
     33 H12C        -4.3870     1.6480    -1.8320 hc         1 1NX       0.043367
     34 H13C        -3.9250     3.2260    -1.1460 hc         1 1NX       0.043367
     35 H2          -2.9770     2.1050     0.8610 h1         1 1NX       0.080700
     36 H4          -4.0140    -0.5540     0.2930 hn         1 1NX       0.305500
     37 H31         -4.9500     1.2760     2.0210 hc         1 1NX       0.082700
     38 H8          -4.0000    -2.5200     0.4090 h4         1 1NX       0.217000
     39 H9          -2.8970    -4.8670     0.3590 hn         1 1NX       0.369000
     40 H12          1.9760    -5.1560    -0.2520 h4         1 1NX       0.048100
     41 H18          2.2870    -0.4650     0.9630 ha         1 1NX       0.135000
     42 H30          4.2790    -1.9020    -2.6070 ha         1 1NX       0.124000
     43 H20          3.4640     2.4650     1.2640 h1         1 1NX       0.088700
     44 H22          0.6560     1.7470     0.3860 hn         1 1NX       0.342500
     45 H261         2.0890     3.4650    -1.3440 hc         1 1NX       0.056200
     46 H262         3.2470     4.3450    -0.3570 hc         1 1NX       0.056200
     47 H241        -1.0650     3.4930     0.9310 hc         1 1NX       0.058700
     48 H242        -0.8680     2.3850     2.2170 hc         1 1NX       0.058700
     49 H243        -0.8380     4.1580     2.6010 hc         1 1NX       0.058700
     50 H271         4.0480     3.0780    -2.7000 hc         1 1NX       0.054700
     51 H272         5.1390     3.0620    -1.3040 hc         1 1NX       0.054700
     52 H29          4.9150     0.4500    -3.1890 ha         1 1NX       0.118000
     53 H321        -6.5690     3.1290     1.6840 hc         1 1NX       0.072700
     54 H322        -5.8620     3.5130     0.0450 hc         1 1NX       0.072700
     55 H331        -6.4000     1.1790    -0.7400 hc         1 1NX       0.072700
     56 H332        -7.1190     0.7960     0.8960 hc         1 1NX       0.072700
@<TRIPOS>BOND
     1     1     2 1   
     2     1    32 1   
     3     1    33 1   
     4     1    34 1   
     5     2     3 1   
     6     2    29 1   
     7     2    35 1   
     8     3     4 1   
     9     3    36 1   
    10     4     5 2   
    11     4     6 1   
    12     6     7 2   
    13     6    14 1   
    14     7     8 1   
    15     7    38 1   
    16     8     9 1   
    17     8    39 1   
    18     9    10 ar  
    19     9    14 ar  
    20    10    11 ar  
    21    11    12 ar  
    22    11    40 1   
    23    12    13 ar  
    24    12    15 1   
    25    13    14 ar  
    26    15    16 1   
    27    16    17 ar  
    28    16    28 ar  
    29    17    18 ar  
    30    17    41 1   
    31    18    19 1   
    32    18    26 ar  
    33    19    20 1   
    34    19    24 1   
    35    19    43 1   
    36    20    21 1   
    37    20    44 1   
    38    21    22 1   
    39    21    23 2   
    40    22    47 1   
    41    22    48 1   
    42    22    49 1   
    43    24    25 1   
    44    24    45 1   
    45    24    46 1   
    46    25    26 1   
    47    25    50 1   
    48    25    51 1   
    49    26    27 ar  
    50    27    28 ar  
    51    27    52 1   
    52    28    42 1   
    53    29    30 1   
    54    29    31 1   
    55    29    37 1   
    56    30    31 1   
    57    30    53 1   
    58    30    54 1   
    59    31    55 1   
    60    31    56 1   
@<TRIPOS>SUBSTRUCTURE
     1 1NX         1 TEMP              0 ****  ****    0 ROOT
