@<TRIPOS>MOLECULE
1NX
   56    60     1     0     0
SMALL
abcg2


@<TRIPOS>ATOM
      1 C1          -4.3810     1.8330    -1.6630 c3         1 1NX      -0.109100
      2 C2          -3.6910     1.6530    -0.3150 c3         1 1NX       0.144700
      3 N4          -3.2820     0.2690    -0.1260 ns         1 1NX      -0.511900
      4 C5          -2.0670    -0.2190    -0.4370 c          1 1NX       0.650300
      5 O6          -1.1450     0.4910    -0.8290 o          1 1NX      -0.603100
      6 C7          -1.8890    -1.6700    -0.2630 cc         1 1NX      -0.330000
      7 C8          -2.8520    -2.6390    -0.0600 cd         1 1NX      -0.105100
      8 N9          -2.2830    -3.8570     0.0800 na         1 1NX      -0.298400
      9 C10         -0.9290    -3.7270    -0.0210 ca         1 1NX       0.269500
     10 N11         -0.0090    -4.6670     0.0850 nb         1 1NX      -0.615000
     11 C12          1.2350    -4.2460    -0.0330 ca         1 1NX       0.303900
     12 C13          1.5280    -2.8840    -0.2670 ca         1 1NX       0.523300
     13 N14          0.6150    -1.9610    -0.3870 nb         1 1NX      -0.653000
     14 C15         -0.6450    -2.3690    -0.2520 ca         1 1NX       0.387800
     15 O16          2.8380    -2.5630    -0.3680 os         1 1NX      -0.362400
     16 C17          3.1910    -1.2610    -0.6460 ca         1 1NX       0.098100
     17 C18          2.7560    -0.2070     0.1480 ca         1 1NX      -0.074000
     18 C19          3.1020     1.0730    -0.2330 ca         1 1NX      -0.099300
     19 C20          2.6500     2.3650     0.3940 c5         1 1NX       0.157000
     20 N22          1.2750     2.3010     0.8270 ns         1 1NX      -0.502900
     21 C23          0.8080     2.9160     1.9290 c          1 1NX       0.602100
     22 C24         -0.6480     2.6680     2.2370 c3         1 1NX      -0.180100
     23 O25          1.5110     3.6090     2.6540 o          1 1NX      -0.622100
     24 C26          2.9340     3.3910    -0.7230 c5         1 1NX      -0.095400
     25 C27          4.1070     2.7970    -1.5200 c5         1 1NX      -0.031100
     26 C28          3.9110     1.3160    -1.3370 ca         1 1NX      -0.079300
     27 C29          4.3870     0.2540    -2.0860 ca         1 1NX      -0.091000
     28 C30          4.0050    -1.0420    -1.7480 ca         1 1NX      -0.107000
     29 C31         -4.5140     2.0530     0.8910 cx         1 1NX      -0.145700
     30 C32         -5.6270     3.0490     0.8270 cx         1 1NX      -0.127400
     31 C33         -5.9350     1.5990     1.0550 cx         1 1NX      -0.127400
     32 H11C        -3.7140     1.5140    -2.4640 hc         1 1NX       0.043367
     33 H12C        -5.2940     1.2410    -1.7350 hc         1 1NX       0.043367
     34 H13C        -4.6330     2.8780    -1.8410 hc         1 1NX       0.043367
     35 H2          -2.7850     2.2610    -0.3190 h1         1 1NX       0.080700
     36 H4          -3.9930    -0.3570     0.2180 hn         1 1NX       0.305500
     37 H31         -3.9280     2.0700     1.8040 hc         1 1NX       0.082700
     38 H8          -3.9260    -2.5490    -0.0150 h4         1 1NX       0.217000
     39 H9          -2.7850    -4.7180     0.2350 hn         1 1NX       0.369000
     40 H12          2.0320    -4.9750     0.0510 h4         1 1NX       0.048100
     41 H18          2.1250    -0.3760     1.0100 ha         1 1NX       0.135000
     42 H30          4.3270    -1.8820    -2.3510 ha         1 1NX       0.124000
     43 H20          3.2620     2.5930     1.2710 h1         1 1NX       0.088700
     44 H22          0.6320     1.7610     0.2630 hn         1 1NX       0.342500
     45 H261         2.0530     3.4590    -1.3660 hc         1 1NX       0.056200
     46 H262         3.1390     4.3860    -0.3300 hc         1 1NX       0.056200
     47 H241        -1.1900     2.2060     1.4140 hc         1 1NX       0.058700
     48 H242        -0.7240     2.0090     3.1030 hc         1 1NX       0.058700
     49 H243        -1.1340     3.6070     2.4960 hc         1 1NX       0.058700
     50 H271         4.1080     3.1060    -2.5660 hc         1 1NX       0.054700
     51 H272         5.0650     3.1080    -1.0930 hc         1 1NX       0.054700
     52 H29          5.0190     0.4170    -2.9510 ha         1 1NX       0.118000
     53 H321        -5.7340     3.7340     1.6570 hc         1 1NX       0.072700
     54 H322        -5.8920     3.4750    -0.1320 hc         1 1NX       0.072700
     55 H331        -6.4000     1.0510     0.2440 hc         1 1NX       0.072700
     56 H332        -6.2570     1.2850     2.0390 hc         1 1NX       0.072700
@<TRIPOS>BOND
     1     1     2 1   
     2     1    32 1   
     3     1    33 1   
     4     1    34 1   
     5     2     3 1   
     6     2    29 1   
     7     2    35 1   
     8     3     4 1   
     9     3    36 1   
    10     4     5 2   
    11     4     6 1   
    12     6     7 2   
    13     6    14 1   
    14     7     8 1   
    15     7    38 1   
    16     8     9 1   
    17     8    39 1   
    18     9    10 ar  
    19     9    14 ar  
    20    10    11 ar  
    21    11    12 ar  
    22    11    40 1   
    23    12    13 ar  
    24    12    15 1   
    25    13    14 ar  
    26    15    16 1   
    27    16    17 ar  
    28    16    28 ar  
    29    17    18 ar  
    30    17    41 1   
    31    18    19 1   
    32    18    26 ar  
    33    19    20 1   
    34    19    24 1   
    35    19    43 1   
    36    20    21 1   
    37    20    44 1   
    38    21    22 1   
    39    21    23 2   
    40    22    47 1   
    41    22    48 1   
    42    22    49 1   
    43    24    25 1   
    44    24    45 1   
    45    24    46 1   
    46    25    26 1   
    47    25    50 1   
    48    25    51 1   
    49    26    27 ar  
    50    27    28 ar  
    51    27    52 1   
    52    28    42 1   
    53    29    30 1   
    54    29    31 1   
    55    29    37 1   
    56    30    31 1   
    57    30    53 1   
    58    30    54 1   
    59    31    55 1   
    60    31    56 1   
@<TRIPOS>SUBSTRUCTURE
     1 1NX         1 TEMP              0 ****  ****    0 ROOT
