@<TRIPOS>MOLECULE
1NY
   52    55     1     0     0
SMALL
No Charge or Current Charge


@<TRIPOS>ATOM
      1 CAN         -9.5100     9.0350    -4.0400 ca         1 1NY      -0.170500
      2 CAP         -9.8050     8.4710    -2.7860 ca         1 1NY      -0.069500
      3 CBA         -9.6280     7.0880    -2.5510 ca         1 1NY      -0.139600
      4 CAU         -9.9480     6.4790    -1.1960 c          1 1NY       0.706600
      5 OAE         -9.7790     5.2780    -1.0380 o          1 1NY      -0.723500
      6 OAC        -10.3630     7.2110    -0.3080 o          1 1NY      -0.723500
      7 CAQ         -9.1450     6.2870    -3.6100 ca         1 1NY      -0.069500
      8 CAO         -8.8510     6.8540    -4.8620 ca         1 1NY      -0.170500
      9 CAZ         -9.0290     8.2290    -5.0930 ca         1 1NY      -0.072000
     10 NAT         -8.7070     8.7240    -6.3890 ns         1 1NY      -0.129000
     11 CAW         -8.7750     9.9910    -6.9640 c          1 1NY       0.606700
     12 OAD         -9.1770    10.9850    -6.3650 o          1 1NY      -0.596100
     13 CAV         -8.3170    10.0810    -8.4100 ca         1 1NY      -0.142600
     14 CAH         -8.3540    11.3270    -9.0740 ca         1 1NY      -0.047000
     15 CAX         -7.9330    11.4600   -10.4150 ca         1 1NY      -0.060800
     16 CAF         -7.8460     8.9560    -9.1250 ca         1 1NY      -0.082000
     17 CAG         -7.4440     9.0760   -10.4640 ca         1 1NY      -0.123000
     18 CBC         -7.4990    10.3180   -11.1330 ca         1 1NY      -0.046300
     19 CBD         -7.0590    10.4690   -12.6150 c6         1 1NY      -0.004700
     20 CAA         -5.5410    10.8180   -12.6450 c3         1 1NY      -0.081600
     21 CAB         -7.2480     9.1570   -13.4410 c3         1 1NY      -0.081600
     22 CAS         -7.8850    11.6000   -13.2990 c6         1 1NY      -0.035200
     23 CAR         -7.9340    12.8540   -12.4490 c2         1 1NY      -0.206200
     24 CAY         -7.9620    12.7930   -11.1020 ce         1 1NY      -0.003400
     25 CBB         -7.9790    14.0390   -10.2810 ca         1 1NY      -0.049800
     26 CAL         -8.9190    15.0540   -10.5490 ca         1 1NY      -0.096500
     27 CAJ         -8.9300    16.2330    -9.7840 ca         1 1NY      -0.111000
     28 CAI         -7.9970    16.4090    -8.7490 ca         1 1NY      -0.108000
     29 CAK         -7.0510    15.4060    -8.4810 ca         1 1NY      -0.111000
     30 CAM         -7.0400    14.2270    -9.2460 ca         1 1NY      -0.096500
     31 H1          -9.6620    10.1010    -4.1670 ha         1 1NY       0.104000
     32 H2         -10.1750     9.1170    -1.9920 ha         1 1NY       0.130500
     33 H4          -8.9960     5.2180    -3.4670 ha         1 1NY       0.130500
     34 H5          -8.4810     6.2130    -5.6600 ha         1 1NY       0.104000
     35 H6          -8.3590     8.0100    -7.0140 hn         1 1NY       0.137000
     36 H7          -8.7210    12.2000    -8.5420 ha         1 1NY       0.146000
     37 H8          -7.7860     7.9740    -8.6610 ha         1 1NY       0.116000
     38 H9          -7.0860     8.1840   -10.9700 ha         1 1NY       0.111000
     39 H10         -5.3310    11.7470   -12.1020 hc         1 1NY       0.036200
     40 H11         -4.9420    10.0270   -12.1790 hc         1 1NY       0.036200
     41 H12         -5.1770    10.9480   -13.6720 hc         1 1NY       0.036200
     42 H13         -6.5650     8.3610   -13.1220 hc         1 1NY       0.036200
     43 H14         -8.2730     8.7760   -13.3530 hc         1 1NY       0.036200
     44 H15         -7.0540     9.3280   -14.5070 hc         1 1NY       0.036200
     45 H16         -7.4720    11.8350   -14.2900 hc         1 1NY       0.049200
     46 H17         -8.9150    11.2570   -13.4680 hc         1 1NY       0.049200
     47 H18         -7.9340    13.8100   -12.9740 ha         1 1NY       0.177000
     48 H21         -9.6470    14.9250   -11.3470 ha         1 1NY       0.115500
     49 H22         -9.6620    17.0100    -9.9940 ha         1 1NY       0.111500
     50 H23         -8.0060    17.3220    -8.1570 ha         1 1NY       0.110000
     51 H24         -6.3240    15.5420    -7.6830 ha         1 1NY       0.111500
     52 H25         -6.2990    13.4580    -9.0390 ha         1 1NY       0.115500
@<TRIPOS>BOND
     1     1     2 ar  
     2     1     9 ar  
     3     1    31 1   
     4     2     3 ar  
     5     2    32 1   
     6     3     4 1   
     7     3     7 ar  
     8     4     5 1   
     9     4     6 1   
    10     7     8 ar  
    11     7    33 1   
    12     8     9 ar  
    13     8    34 1   
    14     9    10 1   
    15    10    11 1   
    16    10    35 1   
    17    11    12 2   
    18    11    13 1   
    19    13    14 ar  
    20    13    16 ar  
    21    14    15 ar  
    22    14    36 1   
    23    15    18 ar  
    24    15    24 1   
    25    16    17 ar  
    26    16    37 1   
    27    17    18 ar  
    28    17    38 1   
    29    18    19 1   
    30    19    20 1   
    31    19    21 1   
    32    19    22 1   
    33    20    39 1   
    34    20    40 1   
    35    20    41 1   
    36    21    42 1   
    37    21    43 1   
    38    21    44 1   
    39    22    23 1   
    40    22    45 1   
    41    22    46 1   
    42    23    24 2   
    43    23    47 1   
    44    24    25 1   
    45    25    26 ar  
    46    25    30 ar  
    47    26    27 ar  
    48    26    48 1   
    49    27    28 ar  
    50    27    49 1   
    51    28    29 ar  
    52    28    50 1   
    53    29    30 ar  
    54    29    51 1   
    55    30    52 1   
@<TRIPOS>SUBSTRUCTURE
     1 1NY         1 TEMP              0 ****  ****    0 ROOT
