@<TRIPOS>MOLECULE
1NY
   52    55     1     0     0
SMALL
abcg2


@<TRIPOS>ATOM
      1 CAN         -9.7400     9.0380    -4.2810 ca         1 1NY      -0.170500
      2 CAP        -10.0330     8.5240    -3.0240 ca         1 1NY      -0.069500
      3 CBA         -9.5580     7.2830    -2.6020 ca         1 1NY      -0.139600
      4 CAU         -9.9010     6.7300    -1.2230 c          1 1NY       0.706600
      5 OAE         -9.4230     5.6040    -0.9260 o          1 1NY      -0.723500
      6 OAC        -10.6360     7.4380    -0.4870 o          1 1NY      -0.723500
      7 CAQ         -8.7600     6.5570    -3.4900 ca         1 1NY      -0.069500
      8 CAO         -8.4560     7.0500    -4.7470 ca         1 1NY      -0.170500
      9 CAZ         -8.9440     8.2960    -5.1600 ca         1 1NY      -0.072000
     10 NAT         -8.6000     8.7110    -6.4570 ns         1 1NY      -0.129000
     11 CAW         -8.9140     9.8630    -7.1130 c          1 1NY       0.606700
     12 OAD         -9.5400    10.7870    -6.5960 o          1 1NY      -0.596100
     13 CAV         -8.4340     9.9470    -8.5290 ca         1 1NY      -0.142600
     14 CAH         -8.3630    11.2130    -9.1100 ca         1 1NY      -0.047000
     15 CAX         -7.9430    11.3970   -10.4260 ca         1 1NY      -0.060800
     16 CAF         -8.0910     8.8380    -9.3020 ca         1 1NY      -0.082000
     17 CAG         -7.6810     9.0080   -10.6190 ca         1 1NY      -0.123000
     18 CBC         -7.5990    10.2680   -11.2030 ca         1 1NY      -0.046300
     19 CBD         -7.0950    10.4680   -12.6280 c6         1 1NY      -0.004700
     20 CAA         -5.5860    10.7820   -12.5570 c3         1 1NY      -0.081600
     21 CAB         -7.3020     9.2360   -13.5140 c3         1 1NY      -0.081600
     22 CAS         -7.8500    11.6550   -13.2570 c6         1 1NY      -0.035200
     23 CAR         -7.8850    12.8550   -12.3670 c2         1 1NY      -0.206200
     24 CAY         -7.9100    12.7450   -11.0310 ce         1 1NY      -0.003400
     25 CBB         -7.9300    13.9510   -10.1670 ca         1 1NY      -0.049800
     26 CAL         -8.8420    14.9830   -10.4030 ca         1 1NY      -0.096500
     27 CAJ         -8.8380    16.1330    -9.6200 ca         1 1NY      -0.111000
     28 CAI         -7.9220    16.2680    -8.5810 ca         1 1NY      -0.108000
     29 CAK         -7.0100    15.2450    -8.3340 ca         1 1NY      -0.111000
     30 CAM         -7.0170    14.0970    -9.1160 ca         1 1NY      -0.096500
     31 H1         -10.1190     9.9990    -4.5820 ha         1 1NY       0.104000
     32 H2         -10.6480     9.1000    -2.3460 ha         1 1NY       0.130500
     33 H4          -8.3800     5.5920    -3.1820 ha         1 1NY       0.130500
     34 H5          -7.8380     6.4710    -5.4230 ha         1 1NY       0.104000
     35 H6          -8.0190     8.0580    -6.9580 hn         1 1NY       0.137000
     36 H7          -8.6480    12.0650    -8.5120 ha         1 1NY       0.146000
     37 H8          -8.1660     7.8310    -8.9140 ha         1 1NY       0.116000
     38 H9          -7.4290     8.1300   -11.1970 ha         1 1NY       0.111000
     39 H10         -5.3910    11.6710   -11.9560 hc         1 1NY       0.036200
     40 H11         -5.0470     9.9430   -12.1150 hc         1 1NY       0.036200
     41 H12         -5.1940    10.9550   -13.5630 hc         1 1NY       0.036200
     42 H13         -6.6970     8.3910   -13.1860 hc         1 1NY       0.036200
     43 H14         -8.3500     8.9280   -13.5250 hc         1 1NY       0.036200
     44 H15         -7.0060     9.4750   -14.5380 hc         1 1NY       0.036200
     45 H16         -7.3850    11.9040   -14.2130 hc         1 1NY       0.049200
     46 H17         -8.8780    11.3440   -13.4880 hc         1 1NY       0.049200
     47 H18         -7.8880    13.8380   -12.8240 ha         1 1NY       0.177000
     48 H21         -9.5660    14.8770   -11.2010 ha         1 1NY       0.115500
     49 H22         -9.5560    16.9190    -9.8160 ha         1 1NY       0.111500
     50 H23         -7.9200    17.1600    -7.9680 ha         1 1NY       0.110000
     51 H24         -6.2910    15.3420    -7.5300 ha         1 1NY       0.111500
     52 H25         -6.3030    13.3080    -8.9180 ha         1 1NY       0.115500
@<TRIPOS>BOND
     1     1     2 ar  
     2     1     9 ar  
     3     1    31 1   
     4     2     3 ar  
     5     2    32 1   
     6     3     4 1   
     7     3     7 ar  
     8     4     5 1   
     9     4     6 1   
    10     7     8 ar  
    11     7    33 1   
    12     8     9 ar  
    13     8    34 1   
    14     9    10 1   
    15    10    11 1   
    16    10    35 1   
    17    11    12 2   
    18    11    13 1   
    19    13    14 ar  
    20    13    16 ar  
    21    14    15 ar  
    22    14    36 1   
    23    15    18 ar  
    24    15    24 1   
    25    16    17 ar  
    26    16    37 1   
    27    17    18 ar  
    28    17    38 1   
    29    18    19 1   
    30    19    20 1   
    31    19    21 1   
    32    19    22 1   
    33    20    39 1   
    34    20    40 1   
    35    20    41 1   
    36    21    42 1   
    37    21    43 1   
    38    21    44 1   
    39    22    23 1   
    40    22    45 1   
    41    22    46 1   
    42    23    24 2   
    43    23    47 1   
    44    24    25 1   
    45    25    26 ar  
    46    25    30 ar  
    47    26    27 ar  
    48    26    48 1   
    49    27    28 ar  
    50    27    49 1   
    51    28    29 ar  
    52    28    50 1   
    53    29    30 ar  
    54    29    51 1   
    55    30    52 1   
@<TRIPOS>SUBSTRUCTURE
     1 1NY         1 TEMP              0 ****  ****    0 ROOT
