@<TRIPOS>MOLECULE
1NZ
   55    60     1     0     0
SMALL
No Charge or Current Charge


@<TRIPOS>ATOM
      1 C1           5.9910     0.6340     0.8260 ca         1 1NZ       0.245500
      2 C2           6.1520     2.0070     1.0580 ca         1 1NZ      -0.218000
      3 C3           6.3140     2.8810    -0.0210 ca         1 1NZ       0.247000
      4 C4           6.3270     2.3890    -1.3300 ca         1 1NZ      -0.218000
      5 C5           6.1670     1.0170    -1.5610 ca         1 1NZ       0.245500
      6 C6           5.9810     0.1210    -0.4880 ca         1 1NZ      -0.238300
      7 C7           5.7970    -1.3750    -0.7430 c3         1 1NZ       0.282100
      8 N8           3.5970    -3.1010     1.6520 nc         1 1NZ      -0.698100
      9 C9           4.5820    -2.9750     0.7820 cd         1 1NZ       0.683100
     10 N10          4.5580    -1.9160    -0.1390 na         1 1NZ      -0.758400
     11 C11          3.2890    -1.4120    -0.4700 ca         1 1NZ       0.294000
     12 C12          2.2150    -1.5670     0.4040 ca         1 1NZ      -0.193600
     13 C13          0.9510    -1.0020     0.1170 ca         1 1NZ      -0.089000
     14 C14          0.7610    -0.2770    -1.0740 ca         1 1NZ       0.097100
     15 C15          1.8210    -0.1540    -1.9820 ca         1 1NZ      -0.071000
     16 C16          3.0750    -0.7170    -1.6820 ca         1 1NZ      -0.131000
     17 C17          2.4370    -2.3950     1.6010 c          1 1NZ       0.711100
     18 O18          1.6080    -2.4920     2.4920 o          1 1NZ      -0.530100
     19 F19         -3.7330    -0.0920    -2.5870 f          1 1NZ      -0.103000
     20 O20         -0.4590     0.2750    -1.3920 os         1 1NZ      -0.244200
     21 C21         -1.3390     0.7360    -0.4390 ca         1 1NZ       0.146100
     22 C22         -0.8530     1.6340     0.5270 ca         1 1NZ      -0.120000
     23 C23         -1.7110     2.1690     1.4920 ca         1 1NZ      -0.072000
     24 C24         -3.0690     1.8340     1.4710 ca         1 1NZ      -0.086000
     25 C25         -3.5910     0.9480     0.5030 ca         1 1NZ      -0.052900
     26 C26         -2.7100     0.3540    -0.4600 ca         1 1NZ      -0.160300
     27 C27         -3.2190    -0.6900    -1.4880 c3         1 1NZ       0.371300
     28 F28          6.4710     4.2030     0.2020 f          1 1NZ      -0.155000
     29 F29         -4.1830    -1.4910    -0.9790 f          1 1NZ      -0.103000
     30 F30         -2.2630    -1.5420    -1.9240 f          1 1NZ      -0.103000
     31 F31          5.8640    -0.1890     1.8900 f          1 1NZ      -0.161000
     32 F32          6.1970     0.5680    -2.8350 f          1 1NZ      -0.161000
     33 C33         -5.0520     0.7570     0.5060 cc         1 1NZ       0.582200
     34 O34         -5.6590     0.5230     1.7320 os         1 1NZ      -0.261700
     35 N35         -5.8670     0.8570    -0.5580 nd         1 1NZ      -0.604700
     36 C36         -7.1010     0.6490     0.0070 ca         1 1NZ       0.459000
     37 C37         -6.9560     0.4560     1.3580 ca         1 1NZ      -0.021900
     38 C38         -8.0540     0.2240     2.1930 ca         1 1NZ      -0.047000
     39 C39         -9.3120     0.2010     1.5590 ca         1 1NZ      -0.150000
     40 C40         -9.3840     0.4090     0.1630 ca         1 1NZ       0.329900
     41 N41         -8.2930     0.6330    -0.6150 nb         1 1NZ      -0.592000
     42 H1           6.1560     2.3900     2.0740 ha         1 1NZ       0.162000
     43 H2           6.4640     3.0700    -2.1650 ha         1 1NZ       0.162000
     44 H3           5.8020    -1.5990    -1.8180 h1         1 1NZ       0.079200
     45 H4           6.6650    -1.9000    -0.3190 h1         1 1NZ       0.079200
     46 H5           5.5020    -3.5370     0.8830 h5         1 1NZ       0.046800
     47 H6           0.1210    -1.1430     0.8050 ha         1 1NZ       0.153000
     48 H7           1.6730     0.3820    -2.9160 ha         1 1NZ       0.137000
     49 H8           3.8710    -0.6050    -2.4080 ha         1 1NZ       0.124000
     50 H9           0.1950     1.9230     0.5240 ha         1 1NZ       0.138000
     51 H10         -1.3300     2.8630     2.2390 ha         1 1NZ       0.130000
     52 H11         -3.7310     2.2920     2.2050 ha         1 1NZ       0.136000
     53 H12         -7.9410     0.0700     3.2640 ha         1 1NZ       0.141000
     54 H13        -10.2190     0.0270     2.1310 ha         1 1NZ       0.130000
     55 H14        -10.3460     0.3970    -0.3480 h4         1 1NZ       0.029100
@<TRIPOS>BOND
     1     1     2 ar  
     2     1     6 ar  
     3     1    31 1   
     4     2     3 ar  
     5     2    42 1   
     6     3     4 ar  
     7     3    28 1   
     8     4     5 ar  
     9     4    43 1   
    10     5     6 ar  
    11     5    32 1   
    12     6     7 1   
    13     7    10 1   
    14     7    44 1   
    15     7    45 1   
    16     8     9 2   
    17     8    17 1   
    18     9    10 1   
    19     9    46 1   
    20    10    11 1   
    21    11    12 ar  
    22    11    16 ar  
    23    12    13 ar  
    24    12    17 1   
    25    13    14 ar  
    26    13    47 1   
    27    14    15 ar  
    28    14    20 1   
    29    15    16 ar  
    30    15    48 1   
    31    16    49 1   
    32    17    18 2   
    33    19    27 1   
    34    20    21 1   
    35    21    22 ar  
    36    21    26 ar  
    37    22    23 ar  
    38    22    50 1   
    39    23    24 ar  
    40    23    51 1   
    41    24    25 ar  
    42    24    52 1   
    43    25    26 ar  
    44    25    33 1   
    45    26    27 1   
    46    27    29 1   
    47    27    30 1   
    48    33    34 1   
    49    33    35 2   
    50    34    37 1   
    51    35    36 1   
    52    36    37 ar  
    53    36    41 ar  
    54    37    38 ar  
    55    38    39 ar  
    56    38    53 1   
    57    39    40 ar  
    58    39    54 1   
    59    40    41 ar  
    60    40    55 1   
@<TRIPOS>SUBSTRUCTURE
     1 1NZ         1 TEMP              0 ****  ****    0 ROOT
