@<TRIPOS>MOLECULE
1NZ
   55    60     1     0     0
SMALL
bcc


@<TRIPOS>ATOM
      1 C1           7.5960    -0.6820     0.1220 ca         1 1NZ       0.210400
      2 C2           8.6030     0.2010     0.4580 ca         1 1NZ      -0.236000
      3 C3           8.3690     1.5410     0.2240 ca         1 1NZ       0.211900
      4 C4           7.1890     2.0100    -0.3210 ca         1 1NZ      -0.236000
      5 C5           6.2290     1.0710    -0.6340 ca         1 1NZ       0.210400
      6 C6           6.3840    -0.2940    -0.4320 ca         1 1NZ      -0.238300
      7 C7           5.3040    -1.2780    -0.7910 c3         1 1NZ       0.282100
      8 N8           3.3570    -1.4300     2.2780 nc         1 1NZ      -0.698100
      9 C9           4.2550    -1.4940     1.3550 cd         1 1NZ       0.683100
     10 N10          4.1220    -1.1400     0.0670 na         1 1NZ      -0.620000
     11 C11          2.8940    -0.6650    -0.3720 ca         1 1NZ       0.155600
     12 C12          1.8670    -0.5600     0.5710 ca         1 1NZ      -0.193600
     13 C13          0.6040    -0.0990     0.1930 ca         1 1NZ      -0.107000
     14 C14          0.3710     0.2580    -1.1150 ca         1 1NZ       0.097100
     15 C15          1.3910     0.1480    -2.0620 ca         1 1NZ      -0.089000
     16 C16          2.6360    -0.3090    -1.7010 ca         1 1NZ      -0.149000
     17 C17          2.1070    -0.9520     1.9680 c          1 1NZ       0.711100
     18 O18          1.2410    -0.8690     2.8240 o          1 1NZ      -0.530100
     19 F19         -3.6600    -0.7800    -2.4180 f          1 1NZ      -0.224300
     20 O20         -0.8330     0.6960    -1.5810 os         1 1NZ      -0.244200
     21 C21         -1.7630     1.1700    -0.7060 ca         1 1NZ       0.146100
     22 C22         -1.5140     2.3600    -0.0340 ca         1 1NZ      -0.138000
     23 C23         -2.4810     2.8960     0.7920 ca         1 1NZ      -0.090000
     24 C24         -3.7110     2.2690     0.9160 ca         1 1NZ      -0.104000
     25 C25         -3.9700     1.0890     0.2310 ca         1 1NZ      -0.052900
     26 C26         -2.9690     0.4900    -0.5480 ca         1 1NZ      -0.160300
     27 C27         -3.1670    -0.8650    -1.1790 c3         1 1NZ       0.735200
     28 F28          9.3180     2.4210     0.5410 f          1 1NZ      -0.119900
     29 F29         -4.0010    -1.6240    -0.4610 f          1 1NZ      -0.224300
     30 F30         -2.0290    -1.5610    -1.2570 f          1 1NZ      -0.224300
     31 F31          7.8040    -1.9820     0.3520 f          1 1NZ      -0.125900
     32 F32          5.0770     1.4940    -1.1580 f          1 1NZ      -0.125900
     33 C33         -5.3390     0.5710     0.2930 cc         1 1NZ       0.582200
     34 O34         -5.9080     0.4870     1.5180 os         1 1NZ      -0.261700
     35 N35         -6.1010     0.2590    -0.6940 nd         1 1NZ      -0.604700
     36 C36         -7.2990    -0.0840    -0.1020 ca         1 1NZ       0.524300
     37 C37         -7.1690     0.0660     1.2750 ca         1 1NZ      -0.087200
     38 C38         -8.2090    -0.2030     2.1350 ca         1 1NZ      -0.065000
     39 C39         -9.3710    -0.6240     1.5010 ca         1 1NZ      -0.233300
     40 C40         -9.4190    -0.7450     0.1080 ca         1 1NZ       0.395200
     41 N41         -8.4030    -0.4820    -0.7060 nb         1 1NZ      -0.592000
     42 H1           9.5340    -0.1470     0.8870 ha         1 1NZ       0.180000
     43 H2           7.0210     3.0640    -0.4950 ha         1 1NZ       0.180000
     44 H3           5.0120    -1.1650    -1.8300 h1         1 1NZ       0.079200
     45 H4           5.6680    -2.2990    -0.7000 h1         1 1NZ       0.079200
     46 H5           5.2340    -1.8780     1.6230 h5         1 1NZ       0.046800
     47 H6          -0.1690    -0.0390     0.9480 ha         1 1NZ       0.171000
     48 H7           1.2000     0.4210    -3.0920 ha         1 1NZ       0.155000
     49 H8           3.3890    -0.3800    -2.4690 ha         1 1NZ       0.142000
     50 H9          -0.5650     2.8630    -0.1710 ha         1 1NZ       0.156000
     51 H10         -2.2900     3.8210     1.3170 ha         1 1NZ       0.148000
     52 H11         -4.4820     2.7250     1.5220 ha         1 1NZ       0.154000
     53 H12         -8.1370    -0.0990     3.2090 ha         1 1NZ       0.159000
     54 H13        -10.2500    -0.8650     2.0810 ha         1 1NZ       0.148000
     55 H14        -10.3380    -1.0750    -0.3610 h4         1 1NZ       0.029100
@<TRIPOS>BOND
     1     1     2 ar  
     2     1     6 ar  
     3     1    31 1   
     4     2     3 ar  
     5     2    42 1   
     6     3     4 ar  
     7     3    28 1   
     8     4     5 ar  
     9     4    43 1   
    10     5     6 ar  
    11     5    32 1   
    12     6     7 1   
    13     7    10 1   
    14     7    44 1   
    15     7    45 1   
    16     8     9 2   
    17     8    17 1   
    18     9    10 1   
    19     9    46 1   
    20    10    11 1   
    21    11    12 ar  
    22    11    16 ar  
    23    12    13 ar  
    24    12    17 1   
    25    13    14 ar  
    26    13    47 1   
    27    14    15 ar  
    28    14    20 1   
    29    15    16 ar  
    30    15    48 1   
    31    16    49 1   
    32    17    18 2   
    33    19    27 1   
    34    20    21 1   
    35    21    22 ar  
    36    21    26 ar  
    37    22    23 ar  
    38    22    50 1   
    39    23    24 ar  
    40    23    51 1   
    41    24    25 ar  
    42    24    52 1   
    43    25    26 ar  
    44    25    33 1   
    45    26    27 1   
    46    27    29 1   
    47    27    30 1   
    48    33    34 1   
    49    33    35 2   
    50    34    37 1   
    51    35    36 1   
    52    36    37 ar  
    53    36    41 ar  
    54    37    38 ar  
    55    38    39 ar  
    56    38    53 1   
    57    39    40 ar  
    58    39    54 1   
    59    40    41 ar  
    60    40    55 1   
@<TRIPOS>SUBSTRUCTURE
     1 1NZ         1 TEMP              0 ****  ****    0 ROOT
