@<TRIPOS>MOLECULE
1O0
   53    57     1     0     0
SMALL
abcg2


@<TRIPOS>ATOM
      1 C1           6.6360     0.5620    -1.0320 ca         1 1O0       0.245500
      2 C2           7.5300     1.3920    -0.3830 ca         1 1O0      -0.218000
      3 C3           7.0030     2.3300     0.4810 ca         1 1O0       0.247000
      4 C4           5.6460     2.4580     0.7110 ca         1 1O0      -0.218000
      5 C5           4.8140     1.5970     0.0280 ca         1 1O0       0.245500
      6 C6           5.2610     0.6270    -0.8610 ca         1 1O0      -0.237300
      7 C7           4.3090    -0.2840    -1.5850 c3         1 1O0       0.282100
      8 N8           4.0850    -3.1010     0.7060 nc         1 1O0      -0.696100
      9 C9           4.4390    -2.1920    -0.1370 cd         1 1O0       0.682100
     10 N10          3.6610    -1.2400    -0.6800 na         1 1O0      -0.760400
     11 C11          2.3140    -1.2090    -0.3480 ca         1 1O0       0.303000
     12 C12          1.8520    -2.1630     0.5660 ca         1 1O0      -0.204600
     13 C13          0.5090    -2.1790     0.9440 ca         1 1O0      -0.036000
     14 C14         -0.3670    -1.2690     0.4050 ca         1 1O0       0.082100
     15 C15          0.0820    -0.3300    -0.5260 ca         1 1O0      -0.097000
     16 C16          1.4070    -0.2940    -0.8950 ca         1 1O0      -0.138000
     17 C17          2.7820    -3.1490     1.1370 c          1 1O0       0.711100
     18 O18          2.4250    -3.9800     1.9560 o          1 1O0      -0.524100
     19 F19         -5.1200    -0.7940    -1.3320 f          1 1O0      -0.108667
     20 O20         -1.6820    -1.3520     0.7660 os         1 1O0      -0.238200
     21 C21         -2.3930    -0.2090     0.9690 ca         1 1O0       0.158100
     22 C22         -1.8800     0.8090     1.7610 ca         1 1O0      -0.156000
     23 C23         -2.6580     1.9220     2.0170 ca         1 1O0      -0.063000
     24 C24         -3.9520     1.9950     1.5250 ca         1 1O0      -0.124000
     25 C25         -4.4790     0.9730     0.7450 cp         1 1O0      -0.067500
     26 C26         -3.6700    -0.1220     0.4120 ca         1 1O0      -0.182300
     27 C27         -4.1090    -1.1890    -0.5550 c3         1 1O0       0.372300
     28 F28          7.8370     3.1460     1.1250 f          1 1O0      -0.155000
     29 F29         -4.4960    -2.3120     0.0630 f          1 1O0      -0.108667
     30 F30         -3.1250    -1.5280    -1.4000 f          1 1O0      -0.108667
     31 F31          7.1310    -0.3550    -1.8680 f          1 1O0      -0.161500
     32 F32          3.4980     1.6960     0.2280 f          1 1O0      -0.161500
     33 C33         -5.9150     1.0720     0.3770 cp         1 1O0       0.385500
     34 C34         -6.3980     2.1790    -0.3120 ca         1 1O0      -0.143000
     35 N35         -6.7010     0.0840     0.7940 nb         1 1O0      -0.651000
     36 C36         -7.9990     0.1640     0.5360 ca         1 1O0       0.346900
     37 C37         -8.5780     1.2230    -0.1490 ca         1 1O0      -0.156000
     38 C38         -7.7560     2.2510    -0.5800 ca         1 1O0      -0.072000
     39 H1           8.5950     1.3070    -0.5490 ha         1 1O0       0.162000
     40 H2           5.2500     3.1990     1.3920 ha         1 1O0       0.162000
     41 H3           3.5530     0.2910    -2.1080 h1         1 1O0       0.079200
     42 H4           4.8280    -0.8500    -2.3560 h1         1 1O0       0.079200
     43 H5           5.4740    -2.1750    -0.4630 h5         1 1O0       0.046800
     44 H6           0.1650    -2.9150     1.6600 ha         1 1O0       0.161000
     45 H7          -0.6030     0.3790    -0.9740 ha         1 1O0       0.131000
     46 H8           1.7080     0.4460    -1.6210 ha         1 1O0       0.122000
     47 H9          -0.8870     0.7230     2.1820 ha         1 1O0       0.136000
     48 H10         -2.2660     2.7210     2.6310 ha         1 1O0       0.123000
     49 H11         -4.5750     2.8430     1.7790 ha         1 1O0       0.126000
     50 H12         -5.7240     2.9600    -0.6390 ha         1 1O0       0.126000
     51 H13         -8.6120    -0.6560     0.8930 h4         1 1O0       0.025100
     52 H14         -9.6430     1.2360    -0.3340 ha         1 1O0       0.126000
     53 H15         -8.1620     3.0970    -1.1190 ha         1 1O0       0.121000
@<TRIPOS>BOND
     1     1     2 ar  
     2     1     6 ar  
     3     1    31 1   
     4     2     3 ar  
     5     2    39 1   
     6     3     4 ar  
     7     3    28 1   
     8     4     5 ar  
     9     4    40 1   
    10     5     6 ar  
    11     5    32 1   
    12     6     7 1   
    13     7    10 1   
    14     7    41 1   
    15     7    42 1   
    16     8     9 2   
    17     8    17 1   
    18     9    10 1   
    19     9    43 1   
    20    10    11 1   
    21    11    12 ar  
    22    11    16 ar  
    23    12    13 ar  
    24    12    17 1   
    25    13    14 ar  
    26    13    44 1   
    27    14    15 ar  
    28    14    20 1   
    29    15    16 ar  
    30    15    45 1   
    31    16    46 1   
    32    17    18 2   
    33    19    27 1   
    34    20    21 1   
    35    21    22 ar  
    36    21    26 ar  
    37    22    23 ar  
    38    22    47 1   
    39    23    24 ar  
    40    23    48 1   
    41    24    25 ar  
    42    24    49 1   
    43    25    26 ar  
    44    25    33 1   
    45    26    27 1   
    46    27    29 1   
    47    27    30 1   
    48    33    34 ar  
    49    33    35 ar  
    50    34    38 ar  
    51    34    50 1   
    52    35    36 ar  
    53    36    37 ar  
    54    36    51 1   
    55    37    38 ar  
    56    37    52 1   
    57    38    53 1   
@<TRIPOS>SUBSTRUCTURE
     1 1O0         1 TEMP              0 ****  ****    0 ROOT
