@<TRIPOS>MOLECULE
1O0
   53    57     1     0     0
SMALL
No Charge or Current Charge


@<TRIPOS>ATOM
      1 C1           5.2540     0.5620     0.4520 ca         1 1O0       0.245500
      2 C2           5.2860     1.5840     1.4090 ca         1 1O0      -0.218000
      3 C3           4.7320     2.8330     1.1120 ca         1 1O0       0.247000
      4 C4           4.1570     3.0690    -0.1400 ca         1 1O0      -0.218000
      5 C5           4.1260     2.0470    -1.0970 ca         1 1O0       0.245500
      6 C6           4.6610     0.7730    -0.8110 ca         1 1O0      -0.237300
      7 C7           4.6160    -0.3440    -1.8520 c3         1 1O0       0.282100
      8 N8           4.2560    -3.7430    -0.4820 nc         1 1O0      -0.696100
      9 C9           4.6200    -2.8160    -1.3490 cd         1 1O0       0.682100
     10 N10          3.9640    -1.5760    -1.3510 na         1 1O0      -0.760400
     11 C11          2.6470    -1.5720    -0.8650 ca         1 1O0       0.303000
     12 C12          2.2150    -2.5600     0.0170 ca         1 1O0      -0.204600
     13 C13          0.9180    -2.5260     0.5740 ca         1 1O0      -0.036000
     14 C14          0.0360    -1.4900     0.2350 ca         1 1O0       0.082100
     15 C15          0.4400    -0.5120    -0.6910 ca         1 1O0      -0.097000
     16 C16          1.7360    -0.5570    -1.2340 ca         1 1O0      -0.138000
     17 C17          3.1420    -3.6670     0.2930 c          1 1O0       0.711100
     18 O18          2.9140    -4.5140     1.1420 o          1 1O0      -0.524100
     19 F19         -4.9080    -0.8640    -1.0660 f          1 1O0      -0.108667
     20 O20         -1.2280    -1.4820     0.7820 os         1 1O0      -0.238200
     21 C21         -1.9280    -0.3190     1.0190 ca         1 1O0       0.158100
     22 C22         -1.2850     0.7090     1.7310 ca         1 1O0      -0.156000
     23 C23         -1.9630     1.8920     2.0370 ca         1 1O0      -0.063000
     24 C24         -3.3040     2.0330     1.6630 ca         1 1O0      -0.124000
     25 C25         -3.9950     1.0090     0.9680 cp         1 1O0      -0.067500
     26 C26         -3.2790    -0.1830     0.5970 ca         1 1O0      -0.182300
     27 C27         -3.9380    -1.3110    -0.2370 c3         1 1O0       0.372300
     28 F28          4.7640     3.8190     2.0350 f          1 1O0      -0.155000
     29 F29         -4.4980    -2.2490     0.5590 f          1 1O0      -0.108667
     30 F30         -3.0680    -1.9570    -1.0480 f          1 1O0      -0.108667
     31 F31          5.8230    -0.6260     0.7570 f          1 1O0      -0.161500
     32 F32          3.5760     2.3070    -2.3030 f          1 1O0      -0.161500
     33 C33         -5.4500     1.2340     0.6840 cp         1 1O0       0.385500
     34 C34         -5.8810     2.3400    -0.0860 ca         1 1O0      -0.143000
     35 N35         -6.3320     0.3750     1.2480 nb         1 1O0      -0.651000
     36 C36         -7.6540     0.5700     1.0370 ca         1 1O0       0.346900
     37 C37         -8.1540     1.6350     0.2690 ca         1 1O0      -0.156000
     38 C38         -7.2530     2.5460    -0.3060 ca         1 1O0      -0.072000
     39 H1           5.7440     1.4090     2.3780 ha         1 1O0       0.162000
     40 H2           3.7370     4.0440    -0.3710 ha         1 1O0       0.162000
     41 H3           4.1060    -0.0140    -2.7670 h1         1 1O0       0.079200
     42 H4           5.6500    -0.5750    -2.1460 h1         1 1O0       0.079200
     43 H5           5.5360    -2.9060    -1.9220 h5         1 1O0       0.046800
     44 H6           0.5870    -3.3020     1.2610 ha         1 1O0       0.161000
     45 H7          -0.2420     0.2780    -0.9930 ha         1 1O0       0.131000
     46 H8           2.0170     0.2080    -1.9480 ha         1 1O0       0.122000
     47 H9          -0.2540     0.5850     2.0530 ha         1 1O0       0.136000
     48 H10         -1.4600     2.6870     2.5840 ha         1 1O0       0.123000
     49 H11         -3.8310     2.9440     1.9380 ha         1 1O0       0.126000
     50 H12         -5.1490     3.0210    -0.5100 ha         1 1O0       0.126000
     51 H13         -8.3310    -0.1470     1.5000 h4         1 1O0       0.025100
     52 H14         -9.2250     1.7500     0.1300 ha         1 1O0       0.126000
     53 H15         -7.6060     3.3850    -0.9020 ha         1 1O0       0.121000
@<TRIPOS>BOND
     1     1     2 ar  
     2     1     6 ar  
     3     1    31 1   
     4     2     3 ar  
     5     2    39 1   
     6     3     4 ar  
     7     3    28 1   
     8     4     5 ar  
     9     4    40 1   
    10     5     6 ar  
    11     5    32 1   
    12     6     7 1   
    13     7    10 1   
    14     7    41 1   
    15     7    42 1   
    16     8     9 2   
    17     8    17 1   
    18     9    10 1   
    19     9    43 1   
    20    10    11 1   
    21    11    12 ar  
    22    11    16 ar  
    23    12    13 ar  
    24    12    17 1   
    25    13    14 ar  
    26    13    44 1   
    27    14    15 ar  
    28    14    20 1   
    29    15    16 ar  
    30    15    45 1   
    31    16    46 1   
    32    17    18 2   
    33    19    27 1   
    34    20    21 1   
    35    21    22 ar  
    36    21    26 ar  
    37    22    23 ar  
    38    22    47 1   
    39    23    24 ar  
    40    23    48 1   
    41    24    25 ar  
    42    24    49 1   
    43    25    26 ar  
    44    25    33 1   
    45    26    27 1   
    46    27    29 1   
    47    27    30 1   
    48    33    34 ar  
    49    33    35 ar  
    50    34    38 ar  
    51    34    50 1   
    52    35    36 ar  
    53    36    37 ar  
    54    36    51 1   
    55    37    38 ar  
    56    37    52 1   
    57    38    53 1   
@<TRIPOS>SUBSTRUCTURE
     1 1O0         1 TEMP              0 ****  ****    0 ROOT
