@<TRIPOS>MOLECULE
1O1
   45    47     1     0     0
SMALL
No Charge or Current Charge


@<TRIPOS>ATOM
      1 C1           3.4290    -1.7360    -0.8520 ca         1 1O1      -0.007000
      2 C2           2.7190    -2.7800    -1.4700 ca         1 1O1      -0.137000
      3 C3           1.6760    -3.4350    -0.7890 ca         1 1O1      -0.022300
      4 C4           1.3440    -3.0310     0.5170 ca         1 1O1      -0.137000
      5 C5           2.0500    -1.9890     1.1420 ca         1 1O1      -0.007000
      6 C6           3.0980    -1.3400     0.4590 ca         1 1O1      -0.302500
      7 S7           3.9740     0.0220     1.2340 sy         1 1O1       1.123600
      8 O8           3.7020     0.0750     2.6730 o          1 1O1      -0.576500
      9 O9           5.3280     0.1180     0.6880 o          1 1O1      -0.576500
     10 N10          3.2580     1.3940     0.6120 nu         1 1O1      -0.871100
     11 C11          1.9060     1.5950     0.3760 ca         1 1O1       0.247000
     12 C12          1.4570     2.0630    -0.8880 ca         1 1O1      -0.168600
     13 C13          0.0630     2.2270    -1.0910 ca         1 1O1      -0.074000
     14 C14         -0.8580     1.9320    -0.0750 ca         1 1O1       0.074100
     15 C15         -0.4020     1.5010     1.1800 ca         1 1O1      -0.122000
     16 C16          0.9730     1.3340     1.3990 ca         1 1O1      -0.147000
     17 C17          2.4090     2.3860    -2.0300 c          1 1O1       0.719600
     18 O18          3.5640     1.9830    -1.9790 o          1 1O1      -0.700500
     19 O19          1.9820     3.0430    -2.9680 o          1 1O1      -0.700500
     20 O20         -2.2030     2.1030    -0.3200 os         1 1O1      -0.272200
     21 C21         -3.1600     1.2160     0.1190 ca         1 1O1       0.111100
     22 C22         -4.4170     1.7070     0.5000 ca         1 1O1      -0.191000
     23 C23         -5.4200     0.8250     0.9380 ca         1 1O1      -0.065000
     24 C24         -5.1820    -0.5690     0.9930 ca         1 1O1      -0.171600
     25 C25         -3.9130    -1.0540     0.5930 ca         1 1O1      -0.065000
     26 C26         -2.9120    -0.1690     0.1560 ca         1 1O1      -0.191000
     27 C27         -6.2650    -1.5250     1.4660 c          1 1O1       0.718600
     28 C28          0.9040    -4.5580    -1.4640 c3         1 1O1      -0.058800
     29 O29         -6.0190    -2.7230     1.4930 o          1 1O1      -0.735500
     30 O30         -7.3460    -1.0640     1.8030 o          1 1O1      -0.735500
     31 H1           4.2270    -1.2350    -1.3970 ha         1 1O1       0.135500
     32 H2           2.9800    -3.0770    -2.4830 ha         1 1O1       0.113000
     33 H3           0.5340    -3.5240     1.0500 ha         1 1O1       0.113000
     34 H4           1.7730    -1.6860     2.1510 ha         1 1O1       0.135500
     35 H5           3.8070     1.5330    -0.2380 hn         1 1O1       0.564000
     36 H6          -0.3170     2.5730    -2.0490 ha         1 1O1       0.147000
     37 H7          -1.1070     1.2950     1.9810 ha         1 1O1       0.112000
     38 H8           1.3100     1.0050     2.3770 ha         1 1O1       0.124000
     39 H10         -4.6140     2.7750     0.4600 ha         1 1O1       0.106500
     40 H11         -6.3860     1.2300     1.2330 ha         1 1O1       0.118500
     41 H12         -3.6990    -2.1200     0.6170 ha         1 1O1       0.118500
     42 H13         -1.9490    -0.5630    -0.1570 ha         1 1O1       0.106500
     43 H14          0.0290    -4.1650    -1.9950 hc         1 1O1       0.049033
     44 H15          1.5280    -5.0910    -2.1920 hc         1 1O1       0.049033
     45 H16          0.5500    -5.2950    -0.7330 hc         1 1O1       0.049033
@<TRIPOS>BOND
     1     1     2 ar  
     2     1     6 ar  
     3     1    31 1   
     4     2     3 ar  
     5     2    32 1   
     6     3     4 ar  
     7     3    28 1   
     8     4     5 ar  
     9     4    33 1   
    10     5     6 ar  
    11     5    34 1   
    12     6     7 1   
    13     7     8 2   
    14     7     9 2   
    15     7    10 1   
    16    10    11 1   
    17    10    35 1   
    18    11    12 ar  
    19    11    16 ar  
    20    12    13 ar  
    21    12    17 1   
    22    13    14 ar  
    23    13    36 1   
    24    14    15 ar  
    25    14    20 1   
    26    15    16 ar  
    27    15    37 1   
    28    16    38 1   
    29    17    18 1   
    30    17    19 1   
    31    20    21 1   
    32    21    22 ar  
    33    21    26 ar  
    34    22    23 ar  
    35    22    39 1   
    36    23    24 ar  
    37    23    40 1   
    38    24    25 ar  
    39    24    27 1   
    40    25    26 ar  
    41    25    41 1   
    42    26    42 1   
    43    27    29 1   
    44    27    30 1   
    45    28    43 1   
    46    28    44 1   
    47    28    45 1   
@<TRIPOS>SUBSTRUCTURE
     1 1O1         1 TEMP              0 ****  ****    0 ROOT
