@<TRIPOS>MOLECULE
1O1
   45    47     1     0     0
SMALL
bcc


@<TRIPOS>ATOM
      1 C1           2.7680    -1.5390    -0.9140 ca         1 1O1      -0.025000
      2 C2           1.7680    -2.3430    -1.4290 ca         1 1O1      -0.155000
      3 C3           0.7470    -2.8380    -0.6150 ca         1 1O1      -0.022300
      4 C4           0.7640    -2.5160     0.7390 ca         1 1O1      -0.155000
      5 C5           1.7570    -1.7080     1.2740 ca         1 1O1      -0.025000
      6 C6           2.7550    -1.2270     0.4410 ca         1 1O1      -0.302500
      7 S7           3.9630    -0.0930     1.0620 sy         1 1O1       1.265200
      8 O8           3.8400    -0.0520     2.5110 o          1 1O1      -0.647300
      9 O9           5.2620    -0.3880     0.4770 o          1 1O1      -0.647300
     10 N10          3.5190     1.3790     0.4360 nu         1 1O1      -0.677500
     11 C11          2.1360     1.6790     0.4320 ca         1 1O1       0.108600
     12 C12          1.4740     1.8360    -0.7950 ca         1 1O1      -0.168600
     13 C13          0.0980     2.0380    -0.7810 ca         1 1O1      -0.092000
     14 C14         -0.6000     2.0760     0.4110 ca         1 1O1       0.074100
     15 C15          0.0640     1.9770     1.6230 ca         1 1O1      -0.140000
     16 C16          1.4350     1.7900     1.6290 ca         1 1O1      -0.165000
     17 C17          2.1910     1.7940    -2.1390 c          1 1O1       0.930200
     18 O18          3.4460     1.6670    -2.1130 o          1 1O1      -0.805800
     19 O19          1.5000     1.9030    -3.1560 o          1 1O1      -0.805800
     20 O20         -1.9670     2.2150     0.3930 os         1 1O1      -0.272200
     21 C21         -2.7170     1.0760     0.4270 ca         1 1O1       0.111100
     22 C22         -4.0980     1.2440     0.4820 ca         1 1O1      -0.209000
     23 C23         -4.9220     0.1330     0.5190 ca         1 1O1      -0.083000
     24 C24         -4.4030    -1.1610     0.5030 ca         1 1O1      -0.171600
     25 C25         -3.0210    -1.3030     0.4460 ca         1 1O1      -0.083000
     26 C26         -2.1730    -0.2050     0.4070 ca         1 1O1      -0.209000
     27 C27         -5.3160    -2.3760     0.5500 c          1 1O1       0.929200
     28 C28         -0.3520    -3.6720    -1.1990 c3         1 1O1      -0.058800
     29 O29         -4.7620    -3.4920     0.5200 o          1 1O1      -0.840800
     30 O30         -6.5410    -2.1520     0.6150 o          1 1O1      -0.840800
     31 H1           3.5390    -1.1550    -1.5680 ha         1 1O1       0.153500
     32 H2           1.7780    -2.5870    -2.4840 ha         1 1O1       0.131000
     33 H3          -0.0140    -2.8980     1.3900 ha         1 1O1       0.131000
     34 H4           1.7430    -1.4610     2.3260 ha         1 1O1       0.153500
     35 H5           3.8420     1.4710    -0.5620 hn         1 1O1       0.508800
     36 H6          -0.4320     2.1380    -1.7190 ha         1 1O1       0.165000
     37 H7          -0.4840     2.0370     2.5550 ha         1 1O1       0.130000
     38 H8           1.9570     1.7160     2.5720 ha         1 1O1       0.142000
     39 H10         -4.5160     2.2430     0.4970 ha         1 1O1       0.124500
     40 H11         -5.9940     0.2720     0.5620 ha         1 1O1       0.136500
     41 H12         -2.5930    -2.2970     0.4310 ha         1 1O1       0.136500
     42 H13         -1.1030    -0.3600     0.3610 ha         1 1O1       0.124500
     43 H14         -1.0530    -3.0470    -1.7550 hc         1 1O1       0.049033
     44 H15          0.0390    -4.4150    -1.8940 hc         1 1O1       0.049033
     45 H16         -0.9170    -4.1930    -0.4270 hc         1 1O1       0.049033
@<TRIPOS>BOND
     1     1     2 ar  
     2     1     6 ar  
     3     1    31 1   
     4     2     3 ar  
     5     2    32 1   
     6     3     4 ar  
     7     3    28 1   
     8     4     5 ar  
     9     4    33 1   
    10     5     6 ar  
    11     5    34 1   
    12     6     7 1   
    13     7     8 2   
    14     7     9 2   
    15     7    10 1   
    16    10    11 1   
    17    10    35 1   
    18    11    12 ar  
    19    11    16 ar  
    20    12    13 ar  
    21    12    17 1   
    22    13    14 ar  
    23    13    36 1   
    24    14    15 ar  
    25    14    20 1   
    26    15    16 ar  
    27    15    37 1   
    28    16    38 1   
    29    17    18 1   
    30    17    19 1   
    31    20    21 1   
    32    21    22 ar  
    33    21    26 ar  
    34    22    23 ar  
    35    22    39 1   
    36    23    24 ar  
    37    23    40 1   
    38    24    25 ar  
    39    24    27 1   
    40    25    26 ar  
    41    25    41 1   
    42    26    42 1   
    43    27    29 1   
    44    27    30 1   
    45    28    43 1   
    46    28    44 1   
    47    28    45 1   
@<TRIPOS>SUBSTRUCTURE
     1 1O1         1 TEMP              0 ****  ****    0 ROOT
