@<TRIPOS>MOLECULE
1O2
  133   133     1     0     0
SMALL
No Charge or Current Charge


@<TRIPOS>ATOM
      1 C1          -1.2570     3.9850     4.0560 c6         1 1O2       0.361300
      2 O1          -0.7490     4.4590     2.7940 os         1 1O2      -0.455000
      3 C2          -1.1930     2.4210     4.0960 c6         1 1O2       0.115300
      4 O2           0.1300     1.9440     3.7530 oh         1 1O2      -0.716000
      5 C3          -2.2400     1.8050     3.1150 c6         1 1O2       0.133300
      6 O3          -2.2570     0.3710     3.2550 oh         1 1O2      -0.674000
      7 C4          -3.6630     2.3910     3.3560 c6         1 1O2       0.148300
      8 O4          -4.1640     1.8950     4.6140 oh         1 1O2      -0.717000
      9 C5          -3.5780     3.9510     3.3050 c6         1 1O2       0.167300
     10 O5          -2.6090     4.4510     4.2660 os         1 1O2      -0.451000
     11 C6          -4.9580     4.6380     3.5730 c3         1 1O2       0.169600
     12 O6          -4.9050     6.0770     3.4850 oh         1 1O2      -0.716000
     13 CAL         -0.6650     5.8890     2.6230 c3         1 1O2       0.142600
     14 CAM          0.0130     6.2260     1.2600 c3         1 1O2       0.171300
     15 OAN         -0.6140     5.4810     0.1840 os         1 1O2      -0.438100
     16 CAO         -1.8730     5.8390    -0.2220 c          1 1O2       0.600100
     17 OAP         -2.4800     6.8230     0.1800 o          1 1O2      -0.489000
     18 CAQ         -2.4530     4.8440    -1.2300 c3         1 1O2      -0.130400
     19 CAR         -3.3260     3.7950    -0.5050 c3         1 1O2      -0.068400
     20 CAS         -4.0330     2.8020    -1.4500 c3         1 1O2      -0.075400
     21 CAT         -4.9110     1.7890    -0.6820 c3         1 1O2      -0.075400
     22 CAU         -5.7010     0.8390    -1.6080 c3         1 1O2      -0.073400
     23 CAV         -6.6020    -0.1430    -0.8280 c3         1 1O2      -0.075400
     24 CAW         -7.4540    -1.0470    -1.7460 c3         1 1O2      -0.073400
     25 CAX         -8.3730    -2.0080    -0.9590 c3         1 1O2      -0.074400
     26 CAY         -9.2730    -2.8710    -1.8710 c3         1 1O2      -0.073400
     27 CAZ        -10.2040    -3.8160    -1.0800 c3         1 1O2      -0.074400
     28 CBA        -11.1380    -4.6460    -1.9880 c3         1 1O2      -0.073400
     29 CBB        -12.0770    -5.5820    -1.1940 c3         1 1O2      -0.074400
     30 CBC        -13.0320    -6.3920    -2.0990 c3         1 1O2      -0.075400
     31 CBD        -13.9720    -7.3250    -1.3040 c3         1 1O2      -0.075400
     32 CBE        -14.9330    -8.1250    -2.2070 c3         1 1O2      -0.088100
     33 CBF          1.5460     5.9840     1.2180 c3         1 1O2       0.171600
     34 OBG          1.8670     4.5900     1.4240 os         1 1O2      -0.421100
     35 CBH          3.1940     4.2500     1.4450 c          1 1O2       0.598100
     36 OBI          4.1140     5.0510     1.3450 o          1 1O2      -0.500000
     37 CBJ          3.4060     2.7450     1.6190 c3         1 1O2      -0.139400
     38 CBK          3.7000     2.0610     0.2620 c3         1 1O2      -0.067400
     39 CBL          4.0710     0.5680     0.4070 c3         1 1O2      -0.075400
     40 CBM          4.4000    -0.1040    -0.9440 c3         1 1O2      -0.074400
     41 CBN          4.8480    -1.5750    -0.7950 c3         1 1O2      -0.074400
     42 CBO          5.1940    -2.2400    -2.1460 c3         1 1O2      -0.072400
     43 CBP          5.6990    -3.6900    -1.9980 c3         1 1O2      -0.043200
     44 CBQ          6.0510    -4.3130    -3.3360 c2         1 1O2      -0.217200
     45 CBR          7.2470    -4.2810    -3.9500 c2         1 1O2      -0.214200
     46 CBS          8.5030    -3.5820    -3.4620 c3         1 1O2      -0.044200
     47 CBT          9.5270    -4.5710    -2.8670 c3         1 1O2      -0.072400
     48 CBU         10.8070    -3.8780    -2.3480 c3         1 1O2      -0.075400
     49 CBV         11.8360    -4.8680    -1.7620 c3         1 1O2      -0.074400
     50 CBW         13.1090    -4.1720    -1.2330 c3         1 1O2      -0.074400
     51 CBX         14.1420    -5.1610    -0.6500 c3         1 1O2      -0.075400
     52 CBZ         15.4100    -4.4620    -0.1130 c3         1 1O2      -0.074400
     53 CCA         16.4430    -5.4470     0.4680 c3         1 1O2      -0.088100
     54 H1          -0.6190     4.3760     4.8630 h2         1 1O2       0.067700
     55 H2          -1.4470     2.1070     5.1190 h1         1 1O2       0.063700
     56 HO2          0.4700     2.5840     3.0820 ho         1 1O2       0.511000
     57 H3          -1.9390     2.0730     2.0900 h1         1 1O2       0.074700
     58 HO3         -1.3100     0.1090     3.3290 ho         1 1O2       0.466000
     59 H4          -4.3160     2.0540     2.5370 h1         1 1O2       0.051700
     60 HO4         -3.8410     0.9620     4.6500 ho         1 1O2       0.521000
     61 H5          -3.2580     4.2550     2.3000 h1         1 1O2       0.068700
     62 H6          -5.6790     4.2450     2.8440 h1         1 1O2       0.036700
     63 H6A         -5.3060     4.3370     4.5700 h1         1 1O2       0.036700
     64 HO6         -5.7800     6.4160     3.7860 ho         1 1O2       0.504000
     65 HAL         -1.6660     6.3390     2.6510 h1         1 1O2       0.049200
     66 HALA        -0.0790     6.3410     3.4330 h1         1 1O2       0.049200
     67 HAM         -0.1200     7.3030     1.0900 h1         1 1O2       0.075700
     68 HAQ         -3.0680     5.3850    -1.9580 hc         1 1O2       0.070200
     69 HAQA        -1.6350     4.3110    -1.7300 hc         1 1O2       0.070200
     70 HAR         -2.6970     3.2360     0.1990 hc         1 1O2       0.055200
     71 HARA        -4.0880     4.3180     0.0880 hc         1 1O2       0.055200
     72 HAS         -4.6600     3.3610    -2.1570 hc         1 1O2       0.036200
     73 HASA        -3.2830     2.2610    -2.0410 hc         1 1O2       0.036200
     74 HAT         -4.2750     1.1950    -0.0130 hc         1 1O2       0.039700
     75 HATA        -5.6190     2.3370    -0.0480 hc         1 1O2       0.039700
     76 HAU         -6.3230     1.4350    -2.2870 hc         1 1O2       0.037200
     77 HAUA        -4.9990     0.2700    -2.2310 hc         1 1O2       0.037200
     78 HAV         -5.9770    -0.7710    -0.1800 hc         1 1O2       0.038200
     79 HAVA        -7.2700     0.4280    -0.1710 hc         1 1O2       0.038200
     80 HAW         -8.0710    -0.4150    -2.3980 hc         1 1O2       0.037200
     81 HAWA        -6.7920    -1.6310    -2.3970 hc         1 1O2       0.037200
     82 HAX         -7.7560    -2.6650    -0.3330 hc         1 1O2       0.037200
     83 HAXA        -9.0080    -1.4220    -0.2810 hc         1 1O2       0.037200
     84 HAY         -9.8820    -2.2100    -2.5010 hc         1 1O2       0.037200
     85 HAYA        -8.6420    -3.4640    -2.5450 hc         1 1O2       0.037200
     86 HAZ         -9.5940    -4.4960    -0.4710 hc         1 1O2       0.037200
     87 HAZA       -10.8130    -3.2220    -0.3860 hc         1 1O2       0.037200
     88 HBA        -11.7430    -3.9650    -2.5990 hc         1 1O2       0.036700
     89 HBAA       -10.5310    -5.2450    -2.6790 hc         1 1O2       0.036700
     90 HBB        -11.4720    -6.2750    -0.5940 hc         1 1O2       0.036700
     91 HBBA       -12.6710    -4.9840    -0.4900 hc         1 1O2       0.036700
     92 HBC        -13.6360    -5.6980    -2.6970 hc         1 1O2       0.036700
     93 HBCA       -12.4400    -6.9910    -2.8030 hc         1 1O2       0.036700
     94 HBD        -13.3720    -8.0280    -0.7120 hc         1 1O2       0.036700
     95 HBDA       -14.5620    -6.7300    -0.5950 hc         1 1O2       0.036700
     96 HBE        -15.5750    -7.4500    -2.7850 hc         1 1O2       0.031367
     97 HBEA       -14.3730    -8.7580    -2.9080 hc         1 1O2       0.031367
     98 HBEB       -15.5770    -8.7730    -1.5990 hc         1 1O2       0.031367
     99 HBF          1.9280     6.3240     0.2460 h1         1 1O2       0.057200
    100 HBFA         2.0170     6.6030     1.9940 h1         1 1O2       0.057200
    101 HBJ          4.2590     2.5870     2.2900 hc         1 1O2       0.075200
    102 HBJA         2.5010     2.2910     2.0350 hc         1 1O2       0.075200
    103 HBK          2.8240     2.1590    -0.3910 hc         1 1O2       0.052700
    104 HBKA         4.5280     2.5850    -0.2320 hc         1 1O2       0.052700
    105 HBL          4.9390     0.4780     1.0720 hc         1 1O2       0.037200
    106 HBLA         3.2420     0.0320     0.8850 hc         1 1O2       0.037200
    107 HBM          3.5190    -0.0580    -1.5960 hc         1 1O2       0.040200
    108 HBMA         5.1970     0.4620    -1.4430 hc         1 1O2       0.040200
    109 HBN          5.7270    -1.6170    -0.1390 hc         1 1O2       0.037200
    110 HBNA         4.0530    -2.1480    -0.3030 hc         1 1O2       0.037200
    111 HBO          4.3070    -2.2320    -2.7920 hc         1 1O2       0.040700
    112 HBOA         5.9630    -1.6440    -2.6530 hc         1 1O2       0.040700
    113 HBP          6.5700    -3.6990    -1.3310 hc         1 1O2       0.043200
    114 HBPA         4.9310    -4.2940    -1.4990 hc         1 1O2       0.043200
    115 HBQ          5.2210    -4.8470    -3.8040 ha         1 1O2       0.165000
    116 HBR          7.3710    -4.7820    -4.9120 ha         1 1O2       0.165000
    117 HBS          8.9670    -3.0390    -4.2950 hc         1 1O2       0.044700
    118 HBSA         8.2610    -2.8250    -2.7070 hc         1 1O2       0.044700
    119 HBT          9.0550    -5.1210    -2.0440 hc         1 1O2       0.039200
    120 HBTA         9.7990    -5.3080    -3.6320 hc         1 1O2       0.039200
    121 HBU         11.2720    -3.3190    -3.1690 hc         1 1O2       0.036700
    122 HBUA        10.5320    -3.1470    -1.5780 hc         1 1O2       0.036700
    123 HBV         11.3690    -5.4340    -0.9460 hc         1 1O2       0.037700
    124 HBVA        12.1180    -5.5950    -2.5350 hc         1 1O2       0.037700
    125 HBW         13.5750    -3.6040    -2.0480 hc         1 1O2       0.036700
    126 HBWA        12.8270    -3.4480    -0.4580 hc         1 1O2       0.036700
    127 HBX         13.6760    -5.7330     0.1620 hc         1 1O2       0.036700
    128 HBXA        14.4290    -5.8810    -1.4260 hc         1 1O2       0.036700
    129 HBZ         15.8810    -3.8890    -0.9220 hc         1 1O2       0.036700
    130 HBZA        15.1270    -3.7420     0.6650 hc         1 1O2       0.036700
    131 HCA         17.3220    -4.9050     0.8370 hc         1 1O2       0.031367
    132 HCAA        16.0120    -6.0120     1.3030 hc         1 1O2       0.031367
    133 HCAB        16.7750    -6.1580    -0.2980 hc         1 1O2       0.031367
@<TRIPOS>BOND
     1     1     2 1   
     2     1     3 1   
     3     1    10 1   
     4     1    54 1   
     5     2    13 1   
     6     3     4 1   
     7     3     5 1   
     8     3    55 1   
     9     4    56 1   
    10     5     6 1   
    11     5     7 1   
    12     5    57 1   
    13     6    58 1   
    14     7     8 1   
    15     7     9 1   
    16     7    59 1   
    17     8    60 1   
    18     9    10 1   
    19     9    11 1   
    20     9    61 1   
    21    11    12 1   
    22    11    62 1   
    23    11    63 1   
    24    12    64 1   
    25    13    14 1   
    26    13    65 1   
    27    13    66 1   
    28    14    15 1   
    29    14    33 1   
    30    14    67 1   
    31    15    16 1   
    32    16    17 2   
    33    16    18 1   
    34    18    19 1   
    35    18    68 1   
    36    18    69 1   
    37    19    20 1   
    38    19    70 1   
    39    19    71 1   
    40    20    21 1   
    41    20    72 1   
    42    20    73 1   
    43    21    22 1   
    44    21    74 1   
    45    21    75 1   
    46    22    23 1   
    47    22    76 1   
    48    22    77 1   
    49    23    24 1   
    50    23    78 1   
    51    23    79 1   
    52    24    25 1   
    53    24    80 1   
    54    24    81 1   
    55    25    26 1   
    56    25    82 1   
    57    25    83 1   
    58    26    27 1   
    59    26    84 1   
    60    26    85 1   
    61    27    28 1   
    62    27    86 1   
    63    27    87 1   
    64    28    29 1   
    65    28    88 1   
    66    28    89 1   
    67    29    30 1   
    68    29    90 1   
    69    29    91 1   
    70    30    31 1   
    71    30    92 1   
    72    30    93 1   
    73    31    32 1   
    74    31    94 1   
    75    31    95 1   
    76    32    96 1   
    77    32    97 1   
    78    32    98 1   
    79    33    34 1   
    80    33    99 1   
    81    33   100 1   
    82    34    35 1   
    83    35    36 2   
    84    35    37 1   
    85    37    38 1   
    86    37   101 1   
    87    37   102 1   
    88    38    39 1   
    89    38   103 1   
    90    38   104 1   
    91    39    40 1   
    92    39   105 1   
    93    39   106 1   
    94    40    41 1   
    95    40   107 1   
    96    40   108 1   
    97    41    42 1   
    98    41   109 1   
    99    41   110 1   
   100    42    43 1   
   101    42   111 1   
   102    42   112 1   
   103    43    44 1   
   104    43   113 1   
   105    43   114 1   
   106    44    45 2   
   107    44   115 1   
   108    45    46 1   
   109    45   116 1   
   110    46    47 1   
   111    46   117 1   
   112    46   118 1   
   113    47    48 1   
   114    47   119 1   
   115    47   120 1   
   116    48    49 1   
   117    48   121 1   
   118    48   122 1   
   119    49    50 1   
   120    49   123 1   
   121    49   124 1   
   122    50    51 1   
   123    50   125 1   
   124    50   126 1   
   125    51    52 1   
   126    51   127 1   
   127    51   128 1   
   128    52    53 1   
   129    52   129 1   
   130    52   130 1   
   131    53   131 1   
   132    53   132 1   
   133    53   133 1   
@<TRIPOS>SUBSTRUCTURE
     1 1O2         1 TEMP              0 ****  ****    0 ROOT
