@<TRIPOS>MOLECULE
1O2
  133   133     1     0     0
SMALL
bcc


@<TRIPOS>ATOM
      1 C1           0.2860     2.7360     3.1580 c6         1 1O2       0.314900
      2 O1           0.2850     3.4050     1.9430 os         1 1O2      -0.408600
      3 C2           1.4250     1.7130     3.1310 c6         1 1O2       0.092100
      4 O2           2.6670     2.2890     2.8050 oh         1 1O2      -0.593800
      5 C3           1.1240     0.6300     2.1010 c6         1 1O2       0.110100
      6 O3           2.0920    -0.3940     2.1250 oh         1 1O2      -0.611800
      7 C4          -0.2340    -0.0040     2.3950 c6         1 1O2       0.125100
      8 O4          -0.2230    -0.7110     3.6110 oh         1 1O2      -0.594800
      9 C5          -1.2840     1.0970     2.4610 c6         1 1O2       0.144100
     10 O5          -0.9310     2.0900     3.4120 os         1 1O2      -0.404600
     11 C6          -2.6570     0.5770     2.8250 c3         1 1O2       0.146400
     12 O6          -3.5790     1.6350     2.6990 oh         1 1O2      -0.593800
     13 CAL         -0.4910     4.5760     1.8850 c3         1 1O2       0.119400
     14 CAM         -0.8940     4.8780     0.4530 c3         1 1O2       0.148100
     15 OAN         -1.7290     3.8430    -0.0730 os         1 1O2      -0.414900
     16 CAO         -3.0430     3.8930     0.1520 c          1 1O2       0.649100
     17 OAP         -3.5770     4.7840     0.7620 o          1 1O2      -0.538000
     18 CAQ         -3.7470     2.7160    -0.4620 c3         1 1O2      -0.130400
     19 CAR         -5.2440     2.7040    -0.2040 c3         1 1O2      -0.068400
     20 CAS         -5.9010     1.4140    -0.6800 c3         1 1O2      -0.075400
     21 CAT         -7.4020     1.4010    -0.4240 c3         1 1O2      -0.075400
     22 CAU         -8.0840     0.1030    -0.8370 c3         1 1O2      -0.073400
     23 CAV         -9.5840     0.1140    -0.5660 c3         1 1O2      -0.075400
     24 CAW        -10.2840    -1.1860    -0.9410 c3         1 1O2      -0.073400
     25 CAX        -11.7820    -1.1540    -0.6600 c3         1 1O2      -0.074400
     26 CAY        -12.4970    -2.4520    -1.0090 c3         1 1O2      -0.073400
     27 CAZ        -13.9930    -2.4050    -0.7220 c3         1 1O2      -0.074400
     28 CBA        -14.7180    -3.7020    -1.0560 c3         1 1O2      -0.073400
     29 CBB        -16.2120    -3.6450    -0.7650 c3         1 1O2      -0.074400
     30 CBC        -16.9430    -4.9400    -1.0930 c3         1 1O2      -0.075400
     31 CBD        -18.4370    -4.8810    -0.8000 c3         1 1O2      -0.075400
     32 CBE        -19.1590    -6.1790    -1.1330 c3         1 1O2      -0.088100
     33 CBF          0.2560     5.0690    -0.5130 c3         1 1O2       0.148400
     34 OBG          0.9510     3.8380    -0.6730 os         1 1O2      -0.397900
     35 CBH          2.1910     3.8600    -1.1400 c          1 1O2       0.647100
     36 OBI          2.7260     4.8570    -1.5590 o          1 1O2      -0.549000
     37 CBJ          2.8370     2.5060    -1.0380 c3         1 1O2      -0.139400
     38 CBK          4.0510     2.3290    -1.9350 c3         1 1O2      -0.067400
     39 CBL          4.7070     0.9690    -1.7380 c3         1 1O2      -0.075400
     40 CBM          5.8990     0.7510    -2.6620 c3         1 1O2      -0.074400
     41 CBN          6.5930    -0.5870    -2.4450 c3         1 1O2      -0.074400
     42 CBO          7.7800    -0.7960    -3.3770 c3         1 1O2      -0.072400
     43 CBP          8.5010    -2.1250    -3.1400 c3         1 1O2      -0.043200
     44 CBQ          9.6460    -2.3150    -4.0870 c2         1 1O2      -0.167200
     45 CBR         10.9460    -2.2240    -3.8120 c2         1 1O2      -0.164200
     46 CBS         11.5830    -1.9570    -2.4840 c3         1 1O2      -0.044200
     47 CBT         12.5970    -3.0330    -2.0950 c3         1 1O2      -0.072400
     48 CBU         13.2690    -2.7530    -0.7570 c3         1 1O2      -0.075400
     49 CBV         14.3100    -3.7970    -0.3760 c3         1 1O2      -0.074400
     50 CBW         14.9650    -3.5260     0.9730 c3         1 1O2      -0.074400
     51 CBX         16.0180    -4.5600     1.3510 c3         1 1O2      -0.075400
     52 CBZ         16.6700    -4.2920     2.7020 c3         1 1O2      -0.074400
     53 CCA         17.7200    -5.3320     3.0680 c3         1 1O2      -0.088100
     54 H1           0.4210     3.4340     3.9970 h2         1 1O2       0.067700
     55 H2           1.4600     1.2470     4.1240 h1         1 1O2       0.063700
     56 HO2          3.0560     2.6610     3.6020 ho         1 1O2       0.412000
     57 H3           1.0740     1.0930     1.1050 h1         1 1O2       0.074700
     58 HO3          2.9630     0.0160     2.1640 ho         1 1O2       0.427000
     59 H4          -0.4940    -0.6670     1.5560 h1         1 1O2       0.051700
     60 HO4          0.5600    -1.2720     3.6170 ho         1 1O2       0.422000
     61 H5          -1.3460     1.5360     1.4580 h1         1 1O2       0.068700
     62 H6          -2.8940    -0.2510     2.1440 h1         1 1O2       0.036700
     63 H6A         -2.6510     0.1670     3.8420 h1         1 1O2       0.036700
     64 HO6         -4.4600     1.2800     2.8420 ho         1 1O2       0.405000
     65 HAL         -1.3960     4.4990     2.4950 h1         1 1O2       0.049200
     66 HALA         0.0760     5.4360     2.2660 h1         1 1O2       0.049200
     67 HAM         -1.4330     5.8300     0.4710 h1         1 1O2       0.075700
     68 HAQ         -3.5370     2.7100    -1.5360 hc         1 1O2       0.070200
     69 HAQA        -3.2870     1.8060    -0.0660 hc         1 1O2       0.070200
     70 HAR         -5.4310     2.8240     0.8660 hc         1 1O2       0.055200
     71 HARA        -5.7150     3.5580    -0.6980 hc         1 1O2       0.055200
     72 HAS         -5.7090     1.2690    -1.7490 hc         1 1O2       0.036200
     73 HASA        -5.4360     0.5640    -0.1690 hc         1 1O2       0.036200
     74 HAT         -7.5850     1.5810     0.6420 hc         1 1O2       0.039700
     75 HATA        -7.8670     2.2390    -0.9540 hc         1 1O2       0.039700
     76 HAU         -7.9070    -0.0830    -1.9020 hc         1 1O2       0.037200
     77 HAUA        -7.6230    -0.7350    -0.3020 hc         1 1O2       0.037200
     78 HAV         -9.7550     0.3230     0.4960 hc         1 1O2       0.038200
     79 HAVA       -10.0440     0.9440    -1.1140 hc         1 1O2       0.038200
     80 HAW        -10.1180    -1.4000    -2.0030 hc         1 1O2       0.037200
     81 HAWA        -9.8290    -2.0160    -0.3910 hc         1 1O2       0.037200
     82 HAX        -11.9440    -0.9240     0.3990 hc         1 1O2       0.037200
     83 HAXA       -12.2370    -0.3280    -1.2190 hc         1 1O2       0.037200
     84 HAY        -12.3380    -2.6850    -2.0680 hc         1 1O2       0.037200
     85 HAYA       -12.0450    -3.2780    -0.4480 hc         1 1O2       0.037200
     86 HAZ        -14.1490    -2.1640     0.3360 hc         1 1O2       0.037200
     87 HAZA       -14.4440    -1.5810    -1.2870 hc         1 1O2       0.037200
     88 HBA        -14.5640    -3.9440    -2.1130 hc         1 1O2       0.036700
     89 HBAA       -14.2690    -4.5260    -0.4900 hc         1 1O2       0.036700
     90 HBB        -16.3650    -3.4000     0.2920 hc         1 1O2       0.036700
     91 HBBA       -16.6610    -2.8210    -1.3320 hc         1 1O2       0.036700
     92 HBC        -16.7930    -5.1860    -2.1510 hc         1 1O2       0.036700
     93 HBCA       -16.4950    -5.7650    -0.5270 hc         1 1O2       0.036700
     94 HBD        -18.5870    -4.6370     0.2560 hc         1 1O2       0.036700
     95 HBDA       -18.8830    -4.0560    -1.3660 hc         1 1O2       0.036700
     96 HBE        -19.0610    -6.4230    -2.1930 hc         1 1O2       0.031367
     97 HBEA       -18.7470    -7.0150    -0.5660 hc         1 1O2       0.031367
     98 HBEB       -20.2240    -6.1180    -0.9060 hc         1 1O2       0.031367
     99 HBF         -0.1230     5.4100    -1.4800 h1         1 1O2       0.057200
    100 HBFA         0.9130     5.8480    -0.1190 h1         1 1O2       0.057200
    101 HBJ          3.1170     2.3760     0.0150 hc         1 1O2       0.075200
    102 HBJA         2.0890     1.7350    -1.2390 hc         1 1O2       0.075200
    103 HBK          3.7540     2.4430    -2.9820 hc         1 1O2       0.052700
    104 HBKA         4.7820     3.1160    -1.7350 hc         1 1O2       0.052700
    105 HBL          5.0300     0.8700    -0.6960 hc         1 1O2       0.037200
    106 HBLA         3.9700     0.1760    -1.9030 hc         1 1O2       0.037200
    107 HBM          5.5660     0.8240    -3.7030 hc         1 1O2       0.040200
    108 HBMA         6.6220     1.5620    -2.5180 hc         1 1O2       0.040200
    109 HBN          6.9330    -0.6540    -1.4050 hc         1 1O2       0.037200
    110 HBNA         5.8730    -1.4010    -2.5820 hc         1 1O2       0.037200
    111 HBO          7.4410    -0.7450    -4.4180 hc         1 1O2       0.040700
    112 HBOA         8.4940     0.0230    -3.2490 hc         1 1O2       0.040700
    113 HBP          8.8360    -2.1700    -2.1020 hc         1 1O2       0.043200
    114 HBPA         7.7850    -2.9440    -3.2690 hc         1 1O2       0.043200
    115 HBQ          9.3630    -2.5100    -5.1190 ha         1 1O2       0.115000
    116 HBR         11.6440    -2.3600    -4.6350 ha         1 1O2       0.115000
    117 HBS         12.1010    -0.9920    -2.5250 hc         1 1O2       0.044700
    118 HBSA        10.8300    -1.8630    -1.6970 hc         1 1O2       0.044700
    119 HBT         12.0970    -4.0060    -2.0570 hc         1 1O2       0.039200
    120 HBTA        13.3590    -3.1110    -2.8780 hc         1 1O2       0.039200
    121 HBU         13.7410    -1.7650    -0.7880 hc         1 1O2       0.036700
    122 HBUA        12.5050    -2.6980     0.0260 hc         1 1O2       0.036700
    123 HBV         13.8440    -4.7890    -0.3600 hc         1 1O2       0.037700
    124 HBVA        15.0830    -3.8390    -1.1520 hc         1 1O2       0.037700
    125 HBW         15.4220    -2.5310     0.9600 hc         1 1O2       0.036700
    126 HBWA        14.1930    -3.4940     1.7500 hc         1 1O2       0.036700
    127 HBX         15.5630    -5.5570     1.3600 hc         1 1O2       0.036700
    128 HBXA        16.7930    -4.5910     0.5760 hc         1 1O2       0.036700
    129 HBZ         17.1250    -3.2970     2.6920 hc         1 1O2       0.036700
    130 HBZA        15.8970    -4.2640     3.4770 hc         1 1O2       0.036700
    131 HCA         18.1750    -5.1210     4.0370 hc         1 1O2       0.031367
    132 HCAA        17.2820    -6.3310     3.1200 hc         1 1O2       0.031367
    133 HCAB        18.5200    -5.3640     2.3270 hc         1 1O2       0.031367
@<TRIPOS>BOND
     1     1     2 1   
     2     1     3 1   
     3     1    10 1   
     4     1    54 1   
     5     2    13 1   
     6     3     4 1   
     7     3     5 1   
     8     3    55 1   
     9     4    56 1   
    10     5     6 1   
    11     5     7 1   
    12     5    57 1   
    13     6    58 1   
    14     7     8 1   
    15     7     9 1   
    16     7    59 1   
    17     8    60 1   
    18     9    10 1   
    19     9    11 1   
    20     9    61 1   
    21    11    12 1   
    22    11    62 1   
    23    11    63 1   
    24    12    64 1   
    25    13    14 1   
    26    13    65 1   
    27    13    66 1   
    28    14    15 1   
    29    14    33 1   
    30    14    67 1   
    31    15    16 1   
    32    16    17 2   
    33    16    18 1   
    34    18    19 1   
    35    18    68 1   
    36    18    69 1   
    37    19    20 1   
    38    19    70 1   
    39    19    71 1   
    40    20    21 1   
    41    20    72 1   
    42    20    73 1   
    43    21    22 1   
    44    21    74 1   
    45    21    75 1   
    46    22    23 1   
    47    22    76 1   
    48    22    77 1   
    49    23    24 1   
    50    23    78 1   
    51    23    79 1   
    52    24    25 1   
    53    24    80 1   
    54    24    81 1   
    55    25    26 1   
    56    25    82 1   
    57    25    83 1   
    58    26    27 1   
    59    26    84 1   
    60    26    85 1   
    61    27    28 1   
    62    27    86 1   
    63    27    87 1   
    64    28    29 1   
    65    28    88 1   
    66    28    89 1   
    67    29    30 1   
    68    29    90 1   
    69    29    91 1   
    70    30    31 1   
    71    30    92 1   
    72    30    93 1   
    73    31    32 1   
    74    31    94 1   
    75    31    95 1   
    76    32    96 1   
    77    32    97 1   
    78    32    98 1   
    79    33    34 1   
    80    33    99 1   
    81    33   100 1   
    82    34    35 1   
    83    35    36 2   
    84    35    37 1   
    85    37    38 1   
    86    37   101 1   
    87    37   102 1   
    88    38    39 1   
    89    38   103 1   
    90    38   104 1   
    91    39    40 1   
    92    39   105 1   
    93    39   106 1   
    94    40    41 1   
    95    40   107 1   
    96    40   108 1   
    97    41    42 1   
    98    41   109 1   
    99    41   110 1   
   100    42    43 1   
   101    42   111 1   
   102    42   112 1   
   103    43    44 1   
   104    43   113 1   
   105    43   114 1   
   106    44    45 2   
   107    44   115 1   
   108    45    46 1   
   109    45   116 1   
   110    46    47 1   
   111    46   117 1   
   112    46   118 1   
   113    47    48 1   
   114    47   119 1   
   115    47   120 1   
   116    48    49 1   
   117    48   121 1   
   118    48   122 1   
   119    49    50 1   
   120    49   123 1   
   121    49   124 1   
   122    50    51 1   
   123    50   125 1   
   124    50   126 1   
   125    51    52 1   
   126    51   127 1   
   127    51   128 1   
   128    52    53 1   
   129    52   129 1   
   130    52   130 1   
   131    53   131 1   
   132    53   132 1   
   133    53   133 1   
@<TRIPOS>SUBSTRUCTURE
     1 1O2         1 TEMP              0 ****  ****    0 ROOT
