@<TRIPOS>MOLECULE
1O3
   40    42     1     0     0
SMALL
No Charge or Current Charge


@<TRIPOS>ATOM
      1 C1           1.8730     0.3070     1.3980 ca         1 1O3       0.276000
      2 C2           2.3030    -1.0210     1.2520 ca         1 1O3      -0.159000
      3 C3           3.0060    -1.4110     0.1030 ca         1 1O3       0.057100
      4 C4           3.2780    -0.4750    -0.9050 ca         1 1O3      -0.125000
      5 C5           2.8490     0.8560    -0.7660 ca         1 1O3       0.034000
      6 C6           2.1480     1.2550     0.3930 ca         1 1O3      -0.318500
      7 S7           1.5810     2.9460     0.5280 sy         1 1O3       1.127600
      8 O8           1.4070     3.3490     1.9250 o          1 1O3      -0.557000
      9 O9           2.2910     3.7820    -0.4400 o          1 1O3      -0.557000
     10 N10          0.0340     2.9170    -0.1000 nu         1 1O3      -0.857100
     11 C11         -0.9610     2.0080     0.2290 ca         1 1O3       0.237000
     12 C12         -1.4280     1.0630    -0.7230 ca         1 1O3      -0.166600
     13 C13         -2.4400     0.1520    -0.3260 ca         1 1O3      -0.086000
     14 C14         -2.9830     0.1900     0.9720 ca         1 1O3       0.058100
     15 C15         -2.5100     1.1240     1.9000 ca         1 1O3      -0.119000
     16 C16         -1.5080     2.0320     1.5250 ca         1 1O3      -0.104000
     17 C17         -0.8690     0.9780    -2.1350 c          1 1O3       0.716600
     18 O18         -1.1140    -0.0220    -2.7940 o          1 1O3      -0.690000
     19 O19         -0.2010     1.9080    -2.5690 o          1 1O3      -0.690000
     20 O20         -3.9570    -0.7020     1.3630 os         1 1O3      -0.257200
     21 C21         -4.9880    -1.0950     0.5380 ca         1 1O3       0.153100
     22 C22         -5.4400    -2.4230     0.6020 ca         1 1O3      -0.161500
     23 C23         -6.5000    -2.8480    -0.2190 ca         1 1O3      -0.083500
     24 C24         -7.1120    -1.9390    -1.0990 ca         1 1O3      -0.159000
     25 C25         -6.6700    -0.6060    -1.1570 ca         1 1O3      -0.083500
     26 C26         -5.6110    -0.1820    -0.3360 ca         1 1O3      -0.161500
     27 F27          1.1820     0.6350     2.5110 f          1 1O3      -0.152000
     28 Br1          3.5850    -3.2230    -0.0920 br         1 1O3      -0.109100
     29 H1           2.0850    -1.7450     2.0310 ha         1 1O3       0.140000
     30 H2           3.8180    -0.7790    -1.7980 ha         1 1O3       0.129000
     31 H3           3.0620     1.5660    -1.5640 ha         1 1O3       0.148000
     32 H4           0.2370     2.8860    -1.1000 hn         1 1O3       0.560000
     33 H5          -2.8070    -0.5930    -1.0290 ha         1 1O3       0.148000
     34 H6          -2.9220     1.1500     2.9060 ha         1 1O3       0.113000
     35 H7          -1.1560     2.7620     2.2480 ha         1 1O3       0.130000
     36 H9          -4.9660    -3.1230     1.2860 ha         1 1O3       0.129000
     37 H10         -6.8460    -3.8790    -0.1720 ha         1 1O3       0.103500
     38 H11         -7.9320    -2.2680    -1.7340 ha         1 1O3       0.103000
     39 H12         -7.1500     0.0980    -1.8340 ha         1 1O3       0.103500
     40 H13         -5.2800     0.8530    -0.3750 ha         1 1O3       0.129000
@<TRIPOS>BOND
     1     1     2 ar  
     2     1     6 ar  
     3     1    27 1   
     4     2     3 ar  
     5     2    29 1   
     6     3     4 ar  
     7     3    28 1   
     8     4     5 ar  
     9     4    30 1   
    10     5     6 ar  
    11     5    31 1   
    12     6     7 1   
    13     7     8 2   
    14     7     9 2   
    15     7    10 1   
    16    10    11 1   
    17    10    32 1   
    18    11    12 ar  
    19    11    16 ar  
    20    12    13 ar  
    21    12    17 1   
    22    13    14 ar  
    23    13    33 1   
    24    14    15 ar  
    25    14    20 1   
    26    15    16 ar  
    27    15    34 1   
    28    16    35 1   
    29    17    18 1   
    30    17    19 1   
    31    20    21 1   
    32    21    22 ar  
    33    21    26 ar  
    34    22    23 ar  
    35    22    36 1   
    36    23    24 ar  
    37    23    37 1   
    38    24    25 ar  
    39    24    38 1   
    40    25    26 ar  
    41    25    39 1   
    42    26    40 1   
@<TRIPOS>SUBSTRUCTURE
     1 1O3         1 TEMP              0 ****  ****    0 ROOT
