@<TRIPOS>MOLECULE
1O3
   40    42     1     0     0
SMALL
abcg2


@<TRIPOS>ATOM
      1 C1           1.6730     0.1780     1.1340 ca         1 1O3       0.276000
      2 C2           2.2210    -1.0680     0.8980 ca         1 1O3      -0.159000
      3 C3           3.1860    -1.1850    -0.0890 ca         1 1O3       0.057100
      4 C4           3.6010    -0.0870    -0.8310 ca         1 1O3      -0.125000
      5 C5           3.0330     1.1480    -0.5740 ca         1 1O3       0.034000
      6 C6           2.0680     1.2970     0.4150 ca         1 1O3      -0.318500
      7 S7           1.3380     2.9010     0.6620 sy         1 1O3       1.127600
      8 O8           1.0380     3.0670     2.0710 o          1 1O3      -0.557000
      9 O9           2.1930     3.8690    -0.0030 o          1 1O3      -0.557000
     10 N10         -0.0690     2.8820    -0.2080 nu         1 1O3      -0.857100
     11 C11         -1.0230     1.8820     0.1170 ca         1 1O3       0.237000
     12 C12         -1.1870     0.7840    -0.7400 ca         1 1O3      -0.166600
     13 C13         -2.1120    -0.1940    -0.3920 ca         1 1O3      -0.086000
     14 C14         -2.8580    -0.0780     0.7670 ca         1 1O3       0.058100
     15 C15         -2.7160     1.0250     1.5950 ca         1 1O3      -0.119000
     16 C16         -1.7940     2.0030     1.2670 ca         1 1O3      -0.104000
     17 C17         -0.4220     0.6390    -2.0520 c          1 1O3       0.716600
     18 O18         -0.4970    -0.4470    -2.6340 o          1 1O3      -0.690000
     19 O19          0.2060     1.6560    -2.4540 o          1 1O3      -0.690000
     20 O20         -3.7250    -1.0780     1.1320 os         1 1O3      -0.257200
     21 C21         -4.9220    -1.1980     0.4910 ca         1 1O3       0.153100
     22 C22         -5.6720    -2.3280     0.8050 ca         1 1O3      -0.161500
     23 C23         -6.9090    -2.5180     0.2120 ca         1 1O3      -0.083500
     24 C24         -7.4080    -1.5930    -0.6970 ca         1 1O3      -0.159000
     25 C25         -6.6520    -0.4700    -1.0020 ca         1 1O3      -0.083500
     26 C26         -5.4100    -0.2620    -0.4130 ca         1 1O3      -0.161500
     27 F27          0.7430     0.2760     2.0780 f          1 1O3      -0.152000
     28 BR1          3.9480    -2.8690    -0.4230 br         1 1O3      -0.109100
     29 H1           1.8870    -1.9150     1.4820 ha         1 1O3       0.140000
     30 H2           4.3560    -0.1790    -1.5980 ha         1 1O3       0.129000
     31 H3           3.3540     2.0020    -1.1520 ha         1 1O3       0.148000
     32 H4           0.1710     2.7210    -1.2210 hn         1 1O3       0.560000
     33 H5          -2.2370    -1.0530    -1.0380 ha         1 1O3       0.148000
     34 H6          -3.3190     1.1160     2.4900 ha         1 1O3       0.113000
     35 H7          -1.6810     2.8690     1.9040 ha         1 1O3       0.130000
     36 H9          -5.2830    -3.0510     1.5120 ha         1 1O3       0.129000
     37 H10         -7.4860    -3.3990     0.4650 ha         1 1O3       0.103500
     38 H11         -8.3730    -1.7460    -1.1610 ha         1 1O3       0.103000
     39 H12         -7.0290     0.2620    -1.7040 ha         1 1O3       0.103500
     40 H13         -4.8430     0.6250    -0.6660 ha         1 1O3       0.129000
@<TRIPOS>BOND
     1     1     2 ar  
     2     1     6 ar  
     3     1    27 1   
     4     2     3 ar  
     5     2    29 1   
     6     3     4 ar  
     7     3    28 1   
     8     4     5 ar  
     9     4    30 1   
    10     5     6 ar  
    11     5    31 1   
    12     6     7 1   
    13     7     8 2   
    14     7     9 2   
    15     7    10 1   
    16    10    11 1   
    17    10    32 1   
    18    11    12 ar  
    19    11    16 ar  
    20    12    13 ar  
    21    12    17 1   
    22    13    14 ar  
    23    13    33 1   
    24    14    15 ar  
    25    14    20 1   
    26    15    16 ar  
    27    15    34 1   
    28    16    35 1   
    29    17    18 1   
    30    17    19 1   
    31    20    21 1   
    32    21    22 ar  
    33    21    26 ar  
    34    22    23 ar  
    35    22    36 1   
    36    23    24 ar  
    37    23    37 1   
    38    24    25 ar  
    39    24    38 1   
    40    25    26 ar  
    41    25    39 1   
    42    26    40 1   
@<TRIPOS>SUBSTRUCTURE
     1 1O3         1 TEMP              0 ****  ****    0 ROOT
