@<TRIPOS>MOLECULE
1O4
   74    79     1     0     0
SMALL
No Charge or Current Charge


@<TRIPOS>ATOM
      1 C8           8.5760    29.1290   -12.1490 c5         1 1O4       0.148300
      2 C5          10.5060    27.9930    -9.7870 c3         1 1O4       0.215600
      3 C6          10.6940    28.9330   -11.0230 c5         1 1O4       0.116300
      4 N1           8.0470    24.8340   -13.2050 nc         1 1O4      -0.604100
      5 C2          12.3630    24.8660    -3.7870 c5         1 1O4       0.102300
      6 N3          10.1520    24.1100   -16.1940 nb         1 1O4      -0.314000
      7 C4          10.4170    26.0840    -5.0470 c3         1 1O4       0.223600
      8 N            9.1350    26.8700   -13.3260 na         1 1O4      -0.276300
      9 C           12.2530    23.6980    -5.9360 c5         1 1O4       0.278300
     10 O            9.0300    25.9350    -5.3670 os         1 1O4      -0.567400
     11 C1          13.1630    24.6870    -5.1120 c5         1 1O4       0.126300
     12 C10          8.1970    26.0580   -12.6580 cd         1 1O4       0.461700
     13 C11          8.9420    24.8800   -14.2680 ca         1 1O4      -0.094600
     14 C12          9.5920    26.0850   -14.3530 ca         1 1O4       0.122500
     15 C13         10.7380    25.3310   -16.1900 ca         1 1O4       0.155900
     16 C14          9.2530    23.8880   -15.2240 ca         1 1O4       0.427900
     17 C15         13.2410    24.1340    -8.1950 ca         1 1O4       0.023700
     18 C16         13.1650    24.4070    -9.5820 ca         1 1O4      -0.150000
     19 C17         14.3200    24.5390   -10.3900 ca         1 1O4       0.358000
     20 C18         14.1910    24.8330   -11.7540 ca         1 1O4      -0.215000
     21 C19         12.9230    24.9890   -12.3350 ca         1 1O4      -0.013000
     22 C20         11.7760    24.8480   -11.5420 ca         1 1O4      -0.138000
     23 C21         11.8940    24.5620   -10.1720 ca         1 1O4       0.055000
     24 C22         10.7450    24.4400    -9.3780 ca         1 1O4      -0.070000
     25 C23         10.8630    24.1750    -8.0040 ca         1 1O4      -0.084000
     26 C3          10.9030    24.7870    -4.3310 c5         1 1O4       0.118300
     27 C7           9.5700    29.9830   -11.3140 c5         1 1O4       0.100300
     28 C9           9.5620    28.2260   -12.9810 c5         1 1O4       0.319300
     29 N2          10.5050    26.3370   -15.3140 nb         1 1O4      -0.197000
     30 N4           8.6620    22.6630   -15.2290 nv         1 1O4      -1.083900
     31 N5          12.1090    24.0120    -7.3730 na         1 1O4       0.036300
     32 O1           8.8930    26.7200    -7.5980 os         1 1O4      -0.746800
     33 O10         10.9710    23.6710    -5.2510 os         1 1O4      -0.404000
     34 O12         14.4570    24.1590    -4.8000 oh         1 1O4      -0.705000
     35 O2           6.9300    26.6800    -9.2180 o          1 1O4      -0.834500
     36 O3           9.2950    27.2230    -9.8720 os         1 1O4      -0.630400
     37 O4          10.8070    28.1610   -12.2440 os         1 1O4      -0.453000
     38 O5           7.7710    30.0030   -12.9530 oh         1 1O4      -0.705000
     39 O6          10.0390    31.1040   -12.1020 oh         1 1O4      -0.715000
     40 O7           7.8800    28.8920    -8.5980 o          1 1O4      -0.834500
     41 O8           8.7640    28.4370    -5.6950 o          1 1O4      -0.824500
     42 O9           6.8220    26.9270    -6.0850 o          1 1O4      -0.824500
     43 P            8.2990    27.1100    -6.1920 p5         1 1O4       1.457800
     44 P1           8.1350    27.4360    -8.7760 p5         1 1O4       1.448800
     45 H6           7.9370    28.5280   -11.4930 h1         1 1O4       0.083700
     46 H51         11.3710    27.3210    -9.7320 h1         1 1O4       0.039200
     47 H52         10.5260    28.6090    -8.8770 h1         1 1O4       0.039200
     48 H4          11.6510    29.4470   -10.8660 h1         1 1O4       0.048700
     49 HN62        15.7260    23.9290    -8.9940 hn         1 1O4       0.475500
     50 HN61        16.3710    24.3580   -10.5370 hn         1 1O4       0.475500
     51 H42         11.0110    26.2710    -5.9510 h1         1 1O4       0.022700
     52 H41         10.5610    26.9320    -4.3650 h1         1 1O4       0.022700
     53 H           12.6800    22.6890    -5.9070 h2         1 1O4       0.091700
     54 H1          13.2570    25.6480    -5.6390 h1         1 1O4       0.077700
     55 H10          7.6640    26.4130   -11.7840 h5         1 1O4       0.122800
     56 H13         11.4720    25.5240   -16.9700 h5         1 1O4       0.034100
     57 H15         14.2030    24.0140    -7.6970 h4         1 1O4       0.150000
     58 H18         15.0760    24.9410   -12.3750 ha         1 1O4       0.117000
     59 H19         12.8290    25.2180   -13.3950 ha         1 1O4       0.125000
     60 H20         10.7960    24.9690   -11.9930 ha         1 1O4       0.178000
     61 H22          9.7580    24.5720    -9.8180 ha         1 1O4       0.225000
     62 H23          9.9640    24.1090    -7.3880 h4         1 1O4       0.243000
     63 H3          10.1870    24.5550    -3.5310 h1         1 1O4       0.094700
     64 H5           9.1050    30.3330   -10.3800 h1         1 1O4       0.112700
     65 H7           9.7600    28.7220   -13.9400 h2         1 1O4       0.102700
     66 HN41         8.7000    22.1170   -16.0850 hn         1 1O4       0.495000
     67 HN42         7.8370    22.5470   -14.6450 hn         1 1O4       0.495000
     68 HO12        14.3060    23.7530    -3.9050 ho         1 1O4       0.525000
     69 HO5          8.3360    30.8180   -13.0030 ho         1 1O4       0.519000
     70 HO6         10.7370    31.5660   -11.5790 ho         1 1O4       0.498000
     71 O11         12.6840    23.8030    -2.8630 oh         1 1O4      -0.712000
     72 N6          15.5870    24.3890    -9.8880 nv         1 1O4      -1.100000
     73 HO11        12.1070    23.9110    -2.0680 ho         1 1O4       0.513000
     74 H2          12.5650    25.8460    -3.3300 h1         1 1O4       0.071700
@<TRIPOS>BOND
     1     1    27 1   
     2     1    28 1   
     3     1    38 1   
     4     1    45 1   
     5     2     3 1   
     6     2    36 1   
     7     2    46 1   
     8     2    47 1   
     9     3    27 1   
    10     3    37 1   
    11     3    48 1   
    12     4    12 2   
    13     4    13 1   
    14     5    11 1   
    15     5    26 1   
    16     5    71 1   
    17     5    74 1   
    18     6    15 ar  
    19     6    16 ar  
    20     7    10 1   
    21     7    26 1   
    22     7    51 1   
    23     7    52 1   
    24     8    12 1   
    25     8    14 1   
    26     8    28 1   
    27     9    11 1   
    28     9    31 1   
    29     9    33 1   
    30     9    53 1   
    31    10    43 1   
    32    11    34 1   
    33    11    54 1   
    34    12    55 1   
    35    13    14 ar  
    36    13    16 ar  
    37    14    29 ar  
    38    15    29 ar  
    39    15    56 1   
    40    16    30 1   
    41    17    18 ar  
    42    17    31 2   
    43    17    57 1   
    44    18    19 ar  
    45    18    23 ar  
    46    19    20 ar  
    47    19    72 1   
    48    20    21 ar  
    49    20    58 1   
    50    21    22 ar  
    51    21    59 1   
    52    22    23 ar  
    53    22    60 1   
    54    23    24 ar  
    55    24    25 ar  
    56    24    61 1   
    57    25    31 1   
    58    25    62 1   
    59    26    33 1   
    60    26    63 1   
    61    27    39 1   
    62    27    64 1   
    63    28    37 1   
    64    28    65 1   
    65    30    66 1   
    66    30    67 1   
    67    32    43 1   
    68    32    44 1   
    69    34    68 1   
    70    35    44 1   
    71    36    44 1   
    72    38    69 1   
    73    39    70 1   
    74    40    44 1   
    75    41    43 1   
    76    42    43 1   
    77    49    72 1   
    78    50    72 1   
    79    71    73 1   
@<TRIPOS>SUBSTRUCTURE
     1 1O4         1 TEMP              0 ****  ****    0 ROOT
