@<TRIPOS>MOLECULE
1O4
   74    79     1     0     0
SMALL
bcc


@<TRIPOS>ATOM
      1 C8           8.3500    29.2330   -11.8340 c5         1 1O4       0.125100
      2 C5           9.8330    28.4370    -9.0330 c3         1 1O4       0.192400
      3 C6          10.0130    29.4530   -10.1450 c5         1 1O4       0.093100
      4 N1           9.3350    25.3440   -13.3800 nc         1 1O4      -0.604100
      5 C2          12.7360    25.9270    -4.7310 c5         1 1O4       0.079100
      6 N3          11.8180    25.9650   -16.0280 nb         1 1O4      -0.840000
      7 C4          10.3240    26.6040    -5.0820 c3         1 1O4       0.200400
      8 N            9.7240    27.5080   -12.9930 na         1 1O4      -0.247000
      9 C           12.3070    24.1670    -6.2260 c5         1 1O4       0.225800
     10 O            8.9970    26.1350    -5.0270 os         1 1O4      -0.544200
     11 C1          13.0700    25.4900    -6.1580 c5         1 1O4       0.103100
     12 C10          9.0510    26.3680   -12.6320 cd         1 1O4       0.461700
     13 C11         10.2580    25.8150   -14.2770 ca         1 1O4      -0.225200
     14 C12         10.5160    27.1570   -14.0530 ca         1 1O4       0.450800
     15 C13         11.9600    27.2480   -15.7050 ca         1 1O4       0.681900
     16 C14         10.9700    25.2070   -15.3250 ca         1 1O4       0.756200
     17 C15         12.8450    23.0830    -8.3020 ca         1 1O4       0.005700
     18 C16         12.6790    22.7990    -9.6530 ca         1 1O4      -0.150000
     19 C17         13.6360    22.0180   -10.3870 ca         1 1O4       0.219600
     20 C18         13.4220    21.8680   -11.7530 ca         1 1O4      -0.233000
     21 C19         12.3060    22.4190   -12.3770 ca         1 1O4      -0.031000
     22 C20         11.3500    23.1320   -11.6830 ca         1 1O4      -0.156000
     23 C21         11.5310    23.3350   -10.3150 ca         1 1O4       0.055000
     24 C22         10.6150    24.0770    -9.5290 ca         1 1O4      -0.088000
     25 C23         10.8450    24.3050    -8.2160 ca         1 1O4      -0.051300
     26 C3          11.2670    25.5020    -4.6440 c5         1 1O4       0.095100
     27 C7           8.7350    30.1300   -10.6570 c5         1 1O4       0.077100
     28 C9           9.7190    28.8080   -12.3650 c5         1 1O4       0.266800
     29 N2          11.3600    27.9230   -14.7400 nb         1 1O4      -0.723000
     30 N4          10.8470    23.9100   -15.6270 nv         1 1O4      -0.973500
     31 N5          11.9710    23.8090    -7.6220 na         1 1O4       0.014900
     32 O1           8.2270    26.3460    -7.3520 os         1 1O4      -0.746800
     33 O10         11.1550    24.3380    -5.4850 os         1 1O4      -0.357600
     34 O12         14.4090    25.2780    -6.4600 oh         1 1O4      -0.582800
     35 O2           7.3550    25.5830    -9.6080 o          1 1O4      -0.834500
     36 O3           9.1290    27.3060    -9.4920 os         1 1O4      -0.607200
     37 O4          10.6090    28.8340   -11.2860 os         1 1O4      -0.406600
     38 O5           7.6310    29.8290   -12.8700 oh         1 1O4      -0.582800
     39 O6           8.9930    31.4160   -11.1620 oh         1 1O4      -0.592800
     40 O7           6.7550    27.9640    -8.7060 o          1 1O4      -0.834500
     41 O8           8.1800    28.4310    -5.8190 o          1 1O4      -0.824500
     42 O9           6.5310    26.4360    -5.4280 o          1 1O4      -0.824500
     43 P            7.8520    26.9720    -5.8650 p5         1 1O4       1.457800
     44 P1           7.7070    26.8170    -8.8350 p5         1 1O4       1.448800
     45 H6           7.8120    28.3730   -11.4250 h1         1 1O4       0.083700
     46 H51         10.8190    28.1100    -8.6880 h1         1 1O4       0.039200
     47 H52          9.3480    28.9270    -8.1830 h1         1 1O4       0.039200
     48 H4          10.7000    30.2180    -9.7640 h1         1 1O4       0.048700
     49 HN62        14.7460    21.3000    -8.8070 hn         1 1O4       0.420300
     50 HN61        15.2930    20.8540   -10.3370 hn         1 1O4       0.420300
     51 H42         10.5920    26.9550    -6.0860 h1         1 1O4       0.022700
     52 H41         10.4700    27.4520    -4.4040 h1         1 1O4       0.022700
     53 H           12.9200    23.3410    -5.8480 h2         1 1O4       0.091700
     54 H1          12.6050    26.2020    -6.8540 h1         1 1O4       0.077700
     55 H10          8.3630    26.3380   -11.8010 h5         1 1O4       0.122800
     56 H13         12.6620    27.8070   -16.3140 h5         1 1O4       0.034100
     57 H15         13.6990    22.7370    -7.7380 h4         1 1O4       0.168000
     58 H18         14.1340    21.3000   -12.3370 ha         1 1O4       0.135000
     59 H19         12.1860    22.2730   -13.4430 ha         1 1O4       0.143000
     60 H20         10.4840    23.5460   -12.1810 ha         1 1O4       0.196000
     61 H22          9.7100    24.4700    -9.9730 ha         1 1O4       0.243000
     62 H23         10.1650    24.8670    -7.5960 h4         1 1O4       0.261000
     63 H3          11.0080    25.1920    -3.6270 h1         1 1O4       0.094700
     64 H5           7.9550    30.1460    -9.8870 h1         1 1O4       0.112700
     65 H7          10.0430    29.5110   -13.1400 h2         1 1O4       0.102700
     66 HN41        11.3080    23.5410   -16.4410 hn         1 1O4       0.439800
     67 HN42        10.1410    23.3450   -15.1880 hn         1 1O4       0.439800
     68 HO12        14.8020    26.1070    -6.7490 ho         1 1O4       0.426000
     69 HO5          6.7190    29.9430   -12.5850 ho         1 1O4       0.420000
     70 HO6          9.2420    31.9850   -10.4270 ho         1 1O4       0.399000
     71 O11         13.5610    25.2000    -3.8630 oh         1 1O4      -0.589800
     72 N6          14.7300    21.4880    -9.7950 nv         1 1O4      -0.851200
     73 HO11        13.3290    25.4270    -2.9560 ho         1 1O4       0.414000
     74 H2          12.8490    27.0100    -4.5970 h1         1 1O4       0.071700
@<TRIPOS>BOND
     1     1    27 1   
     2     1    28 1   
     3     1    38 1   
     4     1    45 1   
     5     2     3 1   
     6     2    36 1   
     7     2    46 1   
     8     2    47 1   
     9     3    27 1   
    10     3    37 1   
    11     3    48 1   
    12     4    12 2   
    13     4    13 1   
    14     5    11 1   
    15     5    26 1   
    16     5    71 1   
    17     5    74 1   
    18     6    15 ar  
    19     6    16 ar  
    20     7    10 1   
    21     7    26 1   
    22     7    51 1   
    23     7    52 1   
    24     8    12 1   
    25     8    14 1   
    26     8    28 1   
    27     9    11 1   
    28     9    31 1   
    29     9    33 1   
    30     9    53 1   
    31    10    43 1   
    32    11    34 1   
    33    11    54 1   
    34    12    55 1   
    35    13    14 ar  
    36    13    16 ar  
    37    14    29 ar  
    38    15    29 ar  
    39    15    56 1   
    40    16    30 1   
    41    17    18 ar  
    42    17    31 2   
    43    17    57 1   
    44    18    19 ar  
    45    18    23 ar  
    46    19    20 ar  
    47    19    72 1   
    48    20    21 ar  
    49    20    58 1   
    50    21    22 ar  
    51    21    59 1   
    52    22    23 ar  
    53    22    60 1   
    54    23    24 ar  
    55    24    25 ar  
    56    24    61 1   
    57    25    31 1   
    58    25    62 1   
    59    26    33 1   
    60    26    63 1   
    61    27    39 1   
    62    27    64 1   
    63    28    37 1   
    64    28    65 1   
    65    30    66 1   
    66    30    67 1   
    67    32    43 1   
    68    32    44 1   
    69    34    68 1   
    70    35    44 1   
    71    36    44 1   
    72    38    69 1   
    73    39    70 1   
    74    40    44 1   
    75    41    43 1   
    76    42    43 1   
    77    49    72 1   
    78    50    72 1   
    79    71    73 1   
@<TRIPOS>SUBSTRUCTURE
     1 1O4         1 TEMP              0 ****  ****    0 ROOT
