@<TRIPOS>MOLECULE
1O5
   50    53     1     0     0
SMALL
No Charge or Current Charge


@<TRIPOS>ATOM
      1 O3           5.4150    -1.8880     1.6000 o          1 1O5      -0.530500
      2 S            5.7910    -0.7090     0.8190 sy         1 1O5       1.141600
      3 O2           6.6810     0.3240     1.3390 o          1 1O5      -0.530500
      4 N3           6.5990    -1.2950    -0.4760 n8         1 1O5      -1.011100
      5 C12          4.3370     0.0260     0.0330 ca         1 1O5      -0.306500
      6 C11          3.1440    -0.7350     0.0420 ca         1 1O5       0.009000
      7 C13          4.3410     1.3040    -0.5930 ca         1 1O5       0.012700
      8 C14          5.5750     2.2000    -0.6730 c3         1 1O5      -0.080800
      9 C15          3.1540     1.7740    -1.1880 ca         1 1O5      -0.134000
     10 C16          1.9780     1.0120    -1.1650 ca         1 1O5      -0.045000
     11 C10          1.9530    -0.2390    -0.5240 ca         1 1O5      -0.101900
     12 C7           0.7430    -1.0680    -0.5380 cc         1 1O5       0.380500
     13 N2           0.7720    -2.4050    -0.6650 nd         1 1O5      -0.503100
     14 N1          -0.5830    -2.7590    -0.6540 na         1 1O5      -0.046400
     15 C8          -0.6130    -0.5710    -0.4040 ca         1 1O5      -0.177900
     16 C9          -1.1480     0.6980    -0.1450 ca         1 1O5      -0.149000
     17 C3          -2.5600     0.8240    -0.0330 ca         1 1O5       0.129100
     18 O1          -3.1300     2.0610     0.2060 os         1 1O5      -0.344100
     19 C2          -2.3600     3.2670     0.3380 c3         1 1O5       0.162600
     20 C1          -3.3470     4.4190     0.5830 c3         1 1O5      -0.094100
     21 C6          -1.4060    -1.6640    -0.4930 ca         1 1O5      -0.071200
     22 C5          -2.7980    -1.5950    -0.3820 ca         1 1O5      -0.104000
     23 C4          -3.4070    -0.3290    -0.1590 ca         1 1O5       0.035000
     24 C17         -4.8850    -0.2380    -0.0480 cc         1 1O5      -0.157000
     25 C20         -5.7470     0.8550     0.1830 cc         1 1O5       0.280900
     26 N5          -7.0260     0.5370     0.2090 nd         1 1O5      -0.532800
     27 N4          -6.9990    -0.8290    -0.0170 na         1 1O5       0.133800
     28 C19         -8.2450    -1.6070    -0.0690 c3         1 1O5       0.073900
     29 C18         -5.7030    -1.3280    -0.1790 cd         1 1O5      -0.163000
     30 H1           6.1650    -0.7880    -1.2420 hn         1 1O5       0.479500
     31 H2           7.5000    -0.8390    -0.3580 hn         1 1O5       0.479500
     32 H3           3.1280    -1.7210     0.5050 ha         1 1O5       0.158000
     33 H4           6.4470     1.6630    -1.0620 hc         1 1O5       0.057700
     34 H5           5.4130     3.0560    -1.3400 hc         1 1O5       0.057700
     35 H6           5.8310     2.6100     0.3110 hc         1 1O5       0.057700
     36 H7           3.1410     2.7410    -1.6870 ha         1 1O5       0.114000
     37 H8           1.0920     1.3920    -1.6680 ha         1 1O5       0.120000
     38 H10         -0.4860     1.5480    -0.0220 ha         1 1O5       0.123000
     39 H11         -1.6650     3.1960     1.1850 h1         1 1O5       0.032200
     40 H12         -1.7870     3.4670    -0.5770 h1         1 1O5       0.032200
     41 H13         -4.0450     4.5150    -0.2570 hc         1 1O5       0.048033
     42 H14         -3.9230     4.2450     1.5000 hc         1 1O5       0.048033
     43 H15         -2.8060     5.3660     0.6910 hc         1 1O5       0.048033
     44 H16         -3.3770    -2.5080    -0.4600 ha         1 1O5       0.122000
     45 H17         -5.4920     1.8940     0.3370 h4         1 1O5       0.047100
     46 H18         -8.8760    -1.2330    -0.8840 h1         1 1O5       0.056033
     47 H19         -8.0150    -2.6650    -0.2460 h1         1 1O5       0.056033
     48 H20         -8.7790    -1.5070     0.8830 h1         1 1O5       0.056033
     49 H21         -5.5070    -2.3760    -0.3670 h4         1 1O5       0.151000
     50 H9          -0.8810    -3.7310    -0.7410 hn         1 1O5       0.379000
@<TRIPOS>BOND
     1     1     2 2   
     2     2     3 2   
     3     2     4 1   
     4     2     5 1   
     5     4    30 1   
     6     4    31 1   
     7     5     6 ar  
     8     5     7 ar  
     9     6    11 ar  
    10     6    32 1   
    11     7     8 1   
    12     7     9 ar  
    13     8    33 1   
    14     8    34 1   
    15     8    35 1   
    16     9    10 ar  
    17     9    36 1   
    18    10    11 ar  
    19    10    37 1   
    20    11    12 1   
    21    12    13 2   
    22    12    15 1   
    23    13    14 1   
    24    14    21 1   
    25    14    50 1   
    26    15    16 ar  
    27    15    21 ar  
    28    16    17 ar  
    29    16    38 1   
    30    17    18 1   
    31    17    23 ar  
    32    18    19 1   
    33    19    20 1   
    34    19    39 1   
    35    19    40 1   
    36    20    41 1   
    37    20    42 1   
    38    20    43 1   
    39    21    22 ar  
    40    22    23 ar  
    41    22    44 1   
    42    23    24 1   
    43    24    25 1   
    44    24    29 2   
    45    25    26 2   
    46    25    45 1   
    47    26    27 1   
    48    27    28 1   
    49    27    29 1   
    50    28    46 1   
    51    28    47 1   
    52    28    48 1   
    53    29    49 1   
@<TRIPOS>SUBSTRUCTURE
     1 1O5         1 TEMP              0 ****  ****    0 ROOT
