@<TRIPOS>MOLECULE
1O5
   50    53     1     0     0
SMALL
abcg2


@<TRIPOS>ATOM
      1 O3           5.3870    -2.1460     1.1000 o          1 1O5      -0.530500
      2 S            5.7820    -0.8070     0.6940 sy         1 1O5       1.141600
      3 O2           6.3370     0.1010     1.6850 o          1 1O5      -0.530500
      4 N3           6.9310    -0.9970    -0.4610 n8         1 1O5      -1.011100
      5 C12          4.3560    -0.0320    -0.0480 ca         1 1O5      -0.306500
      6 C11          3.1660    -0.7390     0.0060 ca         1 1O5       0.009000
      7 C13          4.4330     1.2530    -0.6040 ca         1 1O5       0.012700
      8 C14          5.6970     2.0510    -0.7270 c3         1 1O5      -0.080800
      9 C15          3.2470     1.7830    -1.1010 ca         1 1O5      -0.134000
     10 C16          2.0490     1.0880    -1.0510 ca         1 1O5      -0.045000
     11 C10          1.9880    -0.1860    -0.4940 ca         1 1O5      -0.101900
     12 C7           0.7370    -0.9400    -0.4330 cc         1 1O5       0.380500
     13 N2           0.7420    -2.2560    -0.4980 nd         1 1O5      -0.503100
     14 N1          -0.5170    -2.6590    -0.3980 na         1 1O5      -0.046400
     15 C8          -0.5980    -0.4620    -0.2800 ca         1 1O5      -0.177900
     16 C9          -1.2110     0.7910    -0.1120 ca         1 1O5      -0.149000
     17 C3          -2.5800     0.8400     0.0390 ca         1 1O5       0.129100
     18 O1          -3.2750     1.9820     0.1880 os         1 1O5      -0.344100
     19 C2          -2.5830     3.2200     0.1750 c3         1 1O5       0.162600
     20 C1          -3.6020     4.3270     0.3040 c3         1 1O5      -0.094100
     21 C6          -1.3790    -1.6220    -0.2670 ca         1 1O5      -0.071200
     22 C5          -2.7650    -1.5800    -0.1050 ca         1 1O5      -0.104000
     23 C4          -3.3760    -0.3500     0.0380 ca         1 1O5       0.035000
     24 C17         -4.8320    -0.2860     0.1690 cc         1 1O5      -0.157000
     25 C20         -5.6550     0.5670     0.9350 cc         1 1O5       0.280900
     26 N5          -6.9290     0.2480     0.8150 nd         1 1O5      -0.532800
     27 N4          -6.9600    -0.7880    -0.0180 na         1 1O5       0.133800
     28 C19         -8.2210    -1.3810    -0.3930 c3         1 1O5       0.073900
     29 C18         -5.7360    -1.1470    -0.4300 cd         1 1O5      -0.163000
     30 H1           6.6440    -1.5640    -1.2510 hn         1 1O5       0.479500
     31 H2           7.3910    -0.1430    -0.7540 hn         1 1O5       0.479500
     32 H3           3.1370    -1.7230     0.4510 ha         1 1O5       0.158000
     33 H4           6.3630     1.6230    -1.4800 hc         1 1O5       0.057700
     34 H5           5.4720     3.0660    -1.0450 hc         1 1O5       0.057700
     35 H6           6.2470     2.1100     0.2100 hc         1 1O5       0.057700
     36 H7           3.2640     2.7690    -1.5480 ha         1 1O5       0.114000
     37 H8           1.1640     1.5430    -1.4770 ha         1 1O5       0.120000
     38 H10         -0.6120     1.6910    -0.0940 ha         1 1O5       0.123000
     39 H11         -1.8630     3.2610     1.0000 h1         1 1O5       0.032200
     40 H12         -2.0190     3.3270    -0.7590 h1         1 1O5       0.032200
     41 H13         -4.3090     4.3140    -0.5240 hc         1 1O5       0.048033
     42 H14         -4.1580     4.2500     1.2390 hc         1 1O5       0.048033
     43 H15         -3.0920     5.2900     0.2970 hc         1 1O5       0.048033
     44 H16         -3.3510    -2.4890    -0.0710 ha         1 1O5       0.122000
     45 H17         -5.3640     1.3850     1.5730 h4         1 1O5       0.047100
     46 H18         -8.8560    -0.6430    -0.8800 h1         1 1O5       0.056033
     47 H19         -8.0350    -2.1970    -1.0850 h1         1 1O5       0.056033
     48 H20         -8.7330    -1.7710     0.4840 h1         1 1O5       0.056033
     49 H21         -5.5860    -1.9600    -1.1230 h4         1 1O5       0.151000
     50 H9          -0.7320    -3.6420    -0.4420 hn         1 1O5       0.379000
@<TRIPOS>BOND
     1     1     2 2   
     2     2     3 2   
     3     2     4 1   
     4     2     5 1   
     5     4    30 1   
     6     4    31 1   
     7     5     6 ar  
     8     5     7 ar  
     9     6    11 ar  
    10     6    32 1   
    11     7     8 1   
    12     7     9 ar  
    13     8    33 1   
    14     8    34 1   
    15     8    35 1   
    16     9    10 ar  
    17     9    36 1   
    18    10    11 ar  
    19    10    37 1   
    20    11    12 1   
    21    12    13 2   
    22    12    15 1   
    23    13    14 1   
    24    14    21 1   
    25    14    50 1   
    26    15    16 ar  
    27    15    21 ar  
    28    16    17 ar  
    29    16    38 1   
    30    17    18 1   
    31    17    23 ar  
    32    18    19 1   
    33    19    20 1   
    34    19    39 1   
    35    19    40 1   
    36    20    41 1   
    37    20    42 1   
    38    20    43 1   
    39    21    22 ar  
    40    22    23 ar  
    41    22    44 1   
    42    23    24 1   
    43    24    25 1   
    44    24    29 2   
    45    25    26 2   
    46    25    45 1   
    47    26    27 1   
    48    27    28 1   
    49    27    29 1   
    50    28    46 1   
    51    28    47 1   
    52    28    48 1   
    53    29    49 1   
@<TRIPOS>SUBSTRUCTURE
     1 1O5         1 TEMP              0 ****  ****    0 ROOT
