@<TRIPOS>MOLECULE
1O6
   57    59     1     0     0
SMALL
No Charge or Current Charge


@<TRIPOS>ATOM
      1 C1         -27.1210    49.0140    55.3790 c6         1 1O6      -0.064400
      2 C2         -27.2000    49.4560    53.8970 c6         1 1O6      -0.068400
      3 C3         -27.5330    50.9690    53.7660 c6         1 1O6      -0.066700
      4 C4         -26.4980    51.8300    54.5440 c6         1 1O6      -0.068400
      5 C5         -26.4130    51.4110    56.0320 c6         1 1O6      -0.064400
      6 C6         -26.1140    49.8940    56.1700 c6         1 1O6      -0.124700
      7 C7         -25.9050    49.4580    57.6490 c          1 1O6       0.637100
      8 O8         -26.8870    49.1760    58.3330 o          1 1O6      -0.647100
      9 C9         -24.4340    49.1490    59.6590 c3         1 1O6       0.121700
     10 N10        -24.5920    49.4620    58.2080 n          1 1O6      -0.222400
     11 C11        -23.4310    49.8810    57.4690 ca         1 1O6      -0.052000
     12 C12        -22.7070    48.9820    56.6380 ca         1 1O6      -0.091600
     13 C13        -21.6360    49.4840    55.8650 ca         1 1O6      -0.096000
     14 C14        -21.3170    50.8500    55.8770 ca         1 1O6       0.076100
     15 C15        -22.0470    51.7350    56.6860 ca         1 1O6      -0.173000
     16 C16        -23.1050    51.2520    57.4680 ca         1 1O6      -0.118000
     17 C17        -23.0180    47.4970    56.5650 c          1 1O6       0.712600
     18 O18        -22.0760    46.7170    56.5400 o          1 1O6      -0.706500
     19 O19        -24.1820    47.1370    56.4670 o          1 1O6      -0.706500
     20 O20        -20.2810    51.3040    55.0930 os         1 1O6      -0.261200
     21 C21        -20.3730    52.4450    54.3260 ca         1 1O6       0.142100
     22 C22        -19.2180    53.2160    54.1160 ca         1 1O6      -0.150000
     23 C23        -19.2780    54.3780    53.3260 ca         1 1O6      -0.091000
     24 C24        -20.4960    54.7650    52.7400 ca         1 1O6      -0.152000
     25 C25        -21.6520    53.9900    52.9370 ca         1 1O6      -0.091000
     26 C26        -21.5910    52.8280    53.7270 ca         1 1O6      -0.150000
     27 C28        -27.6230    51.4010    52.2790 c3         1 1O6      -0.084100
     28 C29        -23.0870    48.4670    59.9990 c3         1 1O6      -0.107100
     29 C30        -24.6200    50.4110    60.5320 c3         1 1O6      -0.107100
     30 H1         -28.1180    49.0830    55.8370 hc         1 1O6       0.050950
     31 H2         -26.8230    47.9580    55.4360 hc         1 1O6       0.050950
     32 H3         -27.9620    48.8580    53.3780 hc         1 1O6       0.033700
     33 H4         -26.2440    49.2410    53.3980 hc         1 1O6       0.033700
     34 H5         -28.5280    51.1450    54.1980 hc         1 1O6       0.038700
     35 H6         -25.5070    51.7340    54.0780 hc         1 1O6       0.033700
     36 H7         -26.7700    52.8920    54.4780 hc         1 1O6       0.033700
     37 H8         -25.6380    52.0030    56.5360 hc         1 1O6       0.050950
     38 H9         -27.3600    51.6480    56.5380 hc         1 1O6       0.050950
     39 H10        -25.1460    49.7690    55.6750 hc         1 1O6       0.086700
     40 H11        -25.2170    48.4330    59.9410 h1         1 1O6       0.077700
     41 H12        -21.0610    48.8130    55.2320 ha         1 1O6       0.137000
     42 H13        -21.8020    52.7940    56.7020 ha         1 1O6       0.108000
     43 H14        -23.6800    51.9490    58.0730 ha         1 1O6       0.104000
     44 H16        -18.2770    52.9140    54.5690 ha         1 1O6       0.130500
     45 H17        -18.3830    54.9760    53.1680 ha         1 1O6       0.105000
     46 H18        -20.5430    55.6630    52.1280 ha         1 1O6       0.103000
     47 H19        -22.5920    54.2870    52.4780 ha         1 1O6       0.105000
     48 H20        -22.4860    52.2270    53.8670 ha         1 1O6       0.130500
     49 H21        -27.8970    52.4600    52.1910 hc         1 1O6       0.025367
     50 H22        -26.6660    51.2600    51.7630 hc         1 1O6       0.025367
     51 H23        -28.3810    50.8180    51.7430 hc         1 1O6       0.025367
     52 H24        -23.0520    48.1970    61.0620 hc         1 1O6       0.039367
     53 H25        -22.9620    47.5470    59.4180 hc         1 1O6       0.039367
     54 H26        -22.2380    49.1290    59.7910 hc         1 1O6       0.039367
     55 H27        -24.6080    50.1480    61.5960 hc         1 1O6       0.039367
     56 H28        -23.8180    51.1370    60.3510 hc         1 1O6       0.039367
     57 H29        -25.5790    50.8950    60.3150 hc         1 1O6       0.039367
@<TRIPOS>BOND
     1     1     2 1   
     2     1     6 1   
     3     1    30 1   
     4     1    31 1   
     5     2     3 1   
     6     2    32 1   
     7     2    33 1   
     8     3     4 1   
     9     3    27 1   
    10     3    34 1   
    11     4     5 1   
    12     4    35 1   
    13     4    36 1   
    14     5     6 1   
    15     5    37 1   
    16     5    38 1   
    17     6     7 1   
    18     6    39 1   
    19     7     8 2   
    20     7    10 1   
    21     9    10 1   
    22     9    28 1   
    23     9    29 1   
    24     9    40 1   
    25    10    11 1   
    26    11    12 ar  
    27    11    16 ar  
    28    12    13 ar  
    29    12    17 1   
    30    13    14 ar  
    31    13    41 1   
    32    14    15 ar  
    33    14    20 1   
    34    15    16 ar  
    35    15    42 1   
    36    16    43 1   
    37    17    18 1   
    38    17    19 1   
    39    20    21 1   
    40    21    22 ar  
    41    21    26 ar  
    42    22    23 ar  
    43    22    44 1   
    44    23    24 ar  
    45    23    45 1   
    46    24    25 ar  
    47    24    46 1   
    48    25    26 ar  
    49    25    47 1   
    50    26    48 1   
    51    27    49 1   
    52    27    50 1   
    53    27    51 1   
    54    28    52 1   
    55    28    53 1   
    56    28    54 1   
    57    29    55 1   
    58    29    56 1   
    59    29    57 1   
@<TRIPOS>SUBSTRUCTURE
     1 1O6         1 TEMP              0 ****  ****    0 ROOT
