@<TRIPOS>MOLECULE
1O6
   57    59     1     0     0
SMALL
abcg2


@<TRIPOS>ATOM
      1 C1         -27.0060    49.0020    55.3420 c6         1 1O6      -0.064400
      2 C2         -27.1650    49.5320    53.9170 c6         1 1O6      -0.068400
      3 C3         -27.6000    51.0010    53.8870 c6         1 1O6      -0.066700
      4 C4         -26.6340    51.8540    54.7150 c6         1 1O6      -0.068400
      5 C5         -26.4700    51.3270    56.1400 c6         1 1O6      -0.064400
      6 C6         -26.0110    49.8580    56.1290 c6         1 1O6      -0.124700
      7 C7         -25.8410    49.3730    57.5570 c          1 1O6       0.637100
      8 O8         -26.8130    48.9820    58.2120 o          1 1O6      -0.647100
      9 C9         -24.4490    49.1540    59.5580 c3         1 1O6       0.121700
     10 N10        -24.5990    49.4490    58.1100 n          1 1O6      -0.222400
     11 C11        -23.4670    49.9240    57.3720 ca         1 1O6      -0.052000
     12 C12        -22.6730    49.0440    56.6280 ca         1 1O6      -0.091600
     13 C13        -21.5860    49.5540    55.9200 ca         1 1O6      -0.096000
     14 C14        -21.3010    50.9100    55.9460 ca         1 1O6       0.076100
     15 C15        -22.0630    51.7830    56.7130 ca         1 1O6      -0.173000
     16 C16        -23.1400    51.2780    57.4240 ca         1 1O6      -0.118000
     17 C17        -22.9670    47.5510    56.5300 c          1 1O6       0.712600
     18 O18        -22.0820    46.7830    56.9820 o          1 1O6      -0.706500
     19 O19        -24.0470    47.2250    55.9860 o          1 1O6      -0.706500
     20 O20        -20.1950    51.3500    55.2410 os         1 1O6      -0.261200
     21 C21        -20.3240    52.4280    54.3900 ca         1 1O6       0.142100
     22 C22        -19.1860    53.2000    54.1810 ca         1 1O6      -0.150000
     23 C23        -19.2350    54.2650    53.2900 ca         1 1O6      -0.091000
     24 C24        -20.4140    54.5660    52.6140 ca         1 1O6      -0.152000
     25 C25        -21.5450    53.7850    52.8310 ca         1 1O6      -0.091000
     26 C26        -21.5090    52.7120    53.7150 ca         1 1O6      -0.150000
     27 C28        -27.7250    51.5220    52.4590 c3         1 1O6      -0.084100
     28 C29        -23.0700    48.6040    59.8940 c3         1 1O6      -0.107100
     29 C30        -24.7840    50.3870    60.3980 c3         1 1O6      -0.107100
     30 H1         -27.9730    49.0150    55.8510 hc         1 1O6       0.050950
     31 H2         -26.6610    47.9670    55.3250 hc         1 1O6       0.050950
     32 H3         -27.8900    48.9210    53.3720 hc         1 1O6       0.033700
     33 H4         -26.2100    49.4370    53.3860 hc         1 1O6       0.033700
     34 H5         -28.5870    51.0620    54.3640 hc         1 1O6       0.038700
     35 H6         -25.6550    51.8610    54.2200 hc         1 1O6       0.033700
     36 H7         -26.9820    52.8910    54.7390 hc         1 1O6       0.033700
     37 H8         -25.7550    51.9430    56.6870 hc         1 1O6       0.050950
     38 H9         -27.4240    51.3940    56.6720 hc         1 1O6       0.050950
     39 H10        -25.0490    49.8090    55.6200 hc         1 1O6       0.086700
     40 H11        -25.1910    48.3850    59.7660 h1         1 1O6       0.077700
     41 H12        -20.9590    48.8940    55.3340 ha         1 1O6       0.137000
     42 H13        -21.8250    52.8380    56.7430 ha         1 1O6       0.108000
     43 H14        -23.7480    51.9440    58.0200 ha         1 1O6       0.104000
     44 H16        -18.2770    52.9580    54.7170 ha         1 1O6       0.130500
     45 H17        -18.3480    54.8650    53.1290 ha         1 1O6       0.105000
     46 H18        -20.4510    55.3990    51.9240 ha         1 1O6       0.103000
     47 H19        -22.4670    54.0060    52.3070 ha         1 1O6       0.105000
     48 H20        -22.3890    52.1060    53.8780 ha         1 1O6       0.130500
     49 H21        -28.0600    52.5620    52.4450 hc         1 1O6       0.025367
     50 H22        -26.7590    51.4750    51.9470 hc         1 1O6       0.025367
     51 H23        -28.4380    50.9280    51.8820 hc         1 1O6       0.025367
     52 H24        -23.0550    48.3220    60.9480 hc         1 1O6       0.039367
     53 H25        -22.8300    47.7240    59.2970 hc         1 1O6       0.039367
     54 H26        -22.2890    49.3490    59.7340 hc         1 1O6       0.039367
     55 H27        -24.7950    50.1240    61.4580 hc         1 1O6       0.039367
     56 H28        -24.0380    51.1710    60.2520 hc         1 1O6       0.039367
     57 H29        -25.7640    50.7820    60.1310 hc         1 1O6       0.039367
@<TRIPOS>BOND
     1     1     2 1   
     2     1     6 1   
     3     1    30 1   
     4     1    31 1   
     5     2     3 1   
     6     2    32 1   
     7     2    33 1   
     8     3     4 1   
     9     3    27 1   
    10     3    34 1   
    11     4     5 1   
    12     4    35 1   
    13     4    36 1   
    14     5     6 1   
    15     5    37 1   
    16     5    38 1   
    17     6     7 1   
    18     6    39 1   
    19     7     8 2   
    20     7    10 1   
    21     9    10 1   
    22     9    28 1   
    23     9    29 1   
    24     9    40 1   
    25    10    11 1   
    26    11    12 ar  
    27    11    16 ar  
    28    12    13 ar  
    29    12    17 1   
    30    13    14 ar  
    31    13    41 1   
    32    14    15 ar  
    33    14    20 1   
    34    15    16 ar  
    35    15    42 1   
    36    16    43 1   
    37    17    18 1   
    38    17    19 1   
    39    20    21 1   
    40    21    22 ar  
    41    21    26 ar  
    42    22    23 ar  
    43    22    44 1   
    44    23    24 ar  
    45    23    45 1   
    46    24    25 ar  
    47    24    46 1   
    48    25    26 ar  
    49    25    47 1   
    50    26    48 1   
    51    27    49 1   
    52    27    50 1   
    53    27    51 1   
    54    28    52 1   
    55    28    53 1   
    56    28    54 1   
    57    29    55 1   
    58    29    56 1   
    59    29    57 1   
@<TRIPOS>SUBSTRUCTURE
     1 1O6         1 TEMP              0 ****  ****    0 ROOT
