@<TRIPOS>MOLECULE
1O7
   28    30     1     0     0
SMALL
bcc


@<TRIPOS>ATOM
      1 C4         -14.7260    13.9210    -8.7970 ca         1 1O7      -0.187000
      2 C5         -15.9510    14.0920    -9.3870 ca         1 1O7      -0.028000
      3 C6         -16.0690    14.6730   -10.6570 ca         1 1O7      -0.208600
      4 C11        -15.0490    15.6830   -12.6290 cc         1 1O7      -0.152000
      5 C7         -17.4020    14.8290   -11.2410 c          1 1O7       0.727100
      6 C8         -16.3120    15.8130   -13.1490 cd         1 1O7       0.120500
      7 C9         -14.5920    16.6830   -14.6700 cd         1 1O7      -0.121100
      8 C10        -14.0600    16.1940   -13.5270 cc         1 1O7      -0.088000
      9 C12        -14.9050    15.0850   -11.3270 ca         1 1O7       0.100000
     10 C13        -13.6530    14.9100   -10.7250 ca         1 1O7      -0.244000
     11 N1         -17.4320    15.4050   -12.4890 ns         1 1O7      -0.422100
     12 C3         -13.5600    14.3300    -9.4700 ca         1 1O7       0.187100
     13 C1         -10.0590    14.1200    -8.4950 c3         1 1O7      -0.095100
     14 C2         -11.1820    14.4920    -9.4330 c3         1 1O7       0.140400
     15 O1         -12.4120    14.1190    -8.8190 os         1 1O7      -0.320900
     16 O2         -18.4410    14.4860   -10.6950 o          1 1O7      -0.626500
     17 S1         -16.3160    16.5430   -14.7050 ss         1 1O7      -0.106800
     18 H1         -14.6440    13.4720    -7.8160 ha         1 1O7       0.151000
     19 H2         -16.8420    13.7720    -8.8640 ha         1 1O7       0.156000
     20 H3         -14.0800    17.1230   -15.5110 h4         1 1O7       0.172000
     21 H4         -12.9980    16.1970   -13.3260 ha         1 1O7       0.154000
     22 H5         -12.7680    15.2330   -11.2550 ha         1 1O7       0.138000
     23 H6         -18.3430    15.5230   -12.9140 hn         1 1O7       0.335500
     24 H7          -9.1070    14.3950    -8.9490 hc         1 1O7       0.048700
     25 H8         -10.1410    14.6470    -7.5440 hc         1 1O7       0.048700
     26 H9         -10.0400    13.0480    -8.3000 hc         1 1O7       0.048700
     27 H10        -11.0690    13.9740   -10.3910 h1         1 1O7       0.036700
     28 H11        -11.1750    15.5680    -9.6340 h1         1 1O7       0.036700
@<TRIPOS>BOND
     1     1     2 ar  
     2     1    12 ar  
     3     1    18 1   
     4     2     3 ar  
     5     2    19 1   
     6     3     5 1   
     7     3     9 ar  
     8     4     6 2   
     9     4     8 1   
    10     4     9 1   
    11     5    11 1   
    12     5    16 2   
    13     6    11 1   
    14     6    17 1   
    15     7     8 2   
    16     7    17 1   
    17     7    20 1   
    18     8    21 1   
    19     9    10 ar  
    20    10    12 ar  
    21    10    22 1   
    22    11    23 1   
    23    12    15 1   
    24    13    14 1   
    25    13    24 1   
    26    13    25 1   
    27    13    26 1   
    28    14    15 1   
    29    14    27 1   
    30    14    28 1   
@<TRIPOS>SUBSTRUCTURE
     1 1O7         1 TEMP              0 ****  ****    0 ROOT
