@<TRIPOS>MOLECULE
1O7
   28    30     1     0     0
SMALL
No Charge or Current Charge


@<TRIPOS>ATOM
      1 C4         -14.7300    13.8970    -8.7810 ca         1 1O7      -0.169000
      2 C5         -15.9950    14.0680    -9.3610 ca         1 1O7      -0.010000
      3 C6         -16.1150    14.6580   -10.6360 ca         1 1O7      -0.208600
      4 C11        -15.0880    15.6920   -12.6590 cc         1 1O7      -0.152000
      5 C7         -17.4720    14.8440   -11.2620 c          1 1O7       0.584600
      6 C8         -16.3460    15.8360   -13.1790 cd         1 1O7      -0.024400
      7 C9         -14.5650    16.6980   -14.7080 cd         1 1O7      -0.248000
      8 C10        -14.0780    16.1830   -13.5310 cc         1 1O7      -0.070000
      9 C12        -14.9560    15.0780   -11.3300 ca         1 1O7       0.100000
     10 C13        -13.6910    14.9000   -10.7360 ca         1 1O7      -0.226000
     11 N1         -17.4770    15.4280   -12.5030 ns         1 1O7      -0.355100
     12 C3         -13.5760    14.3090    -9.4600 ca         1 1O7       0.187100
     13 C1          -9.9890    14.1290    -8.4670 c3         1 1O7      -0.095100
     14 C2         -11.1160    14.4990    -9.4450 c3         1 1O7       0.163600
     15 O1         -12.3600    14.1130    -8.8370 os         1 1O7      -0.344100
     16 O2         -18.5130    14.5050   -10.7180 o          1 1O7      -0.551000
     17 S1         -16.3360    16.5910   -14.7820 ss         1 1O7       0.183000
     18 H1         -14.6420    13.4420    -7.7980 ha         1 1O7       0.133000
     19 H2         -16.8810    13.7420    -8.8180 ha         1 1O7       0.138000
     20 H3         -14.0090    17.1300   -15.5310 h4         1 1O7       0.154000
     21 H4         -13.0200    16.1540   -13.2880 ha         1 1O7       0.136000
     22 H5         -12.8060    15.2220   -11.2700 ha         1 1O7       0.120000
     23 H6         -18.3940    15.5480   -12.9140 hn         1 1O7       0.335500
     24 H7          -9.0160    14.4060    -8.8890 hc         1 1O7       0.048700
     25 H8         -10.1140    14.6590    -7.5150 hc         1 1O7       0.048700
     26 H9          -9.9850    13.0510    -8.2720 hc         1 1O7       0.048700
     27 H10        -10.9640    13.9680   -10.3940 h1         1 1O7       0.036700
     28 H11        -11.0930    15.5800    -9.6360 h1         1 1O7       0.036700
@<TRIPOS>BOND
     1     1     2 ar  
     2     1    12 ar  
     3     1    18 1   
     4     2     3 ar  
     5     2    19 1   
     6     3     5 1   
     7     3     9 ar  
     8     4     6 2   
     9     4     8 1   
    10     4     9 1   
    11     5    11 1   
    12     5    16 2   
    13     6    11 1   
    14     6    17 1   
    15     7     8 2   
    16     7    17 1   
    17     7    20 1   
    18     8    21 1   
    19     9    10 ar  
    20    10    12 ar  
    21    10    22 1   
    22    11    23 1   
    23    12    15 1   
    24    13    14 1   
    25    13    24 1   
    26    13    25 1   
    27    13    26 1   
    28    14    15 1   
    29    14    27 1   
    30    14    28 1   
@<TRIPOS>SUBSTRUCTURE
     1 1O7         1 TEMP              0 ****  ****    0 ROOT
