@<TRIPOS>MOLECULE
1O8
   43    44     1     0     0
SMALL
bcc


@<TRIPOS>ATOM
      1 C2          -1.7610    -1.1140    -1.1170 c6         1 1O8      -0.035200
      2 C1          -1.3810     0.1610    -1.8610 c6         1 1O8      -0.074400
      3 C18         -2.5910     1.0730    -1.9680 c6         1 1O8      -0.032100
      4 C5          -3.3470     1.2130    -0.6720 ca         1 1O8      -0.059300
      5 C4          -4.2690     2.2520    -0.5440 ca         1 1O8      -0.135000
      6 C3          -5.0270     2.4110     0.6020 ca         1 1O8      -0.134000
      7 C16         -4.8760     1.5100     1.6500 ca         1 1O8      -0.140000
      8 C17         -3.9630     0.4780     1.5390 ca         1 1O8      -0.124000
      9 C6          -3.1720     0.3160     0.3940 ca         1 1O8      -0.029800
     10 C7          -2.1750    -0.7760     0.2870 ce         1 1O8      -0.066400
     11 C8          -1.6800    -1.3890     1.3730 cf         1 1O8      -0.093000
     12 C9          -0.7250    -2.5090     1.4070 cf         1 1O8      -0.146200
     13 C19         -1.2630    -3.7710     2.0170 c3         1 1O8      -0.036900
     14 C10          0.5500    -2.4270     0.9850 ce         1 1O8      -0.069000
     15 C11          1.1990    -1.2450     0.4630 ce         1 1O8      -0.226000
     16 C12          2.4520    -1.2610    -0.0260 cf         1 1O8      -0.047000
     17 C13          3.1890    -0.1170    -0.5520 cf         1 1O8      -0.154200
     18 C20          2.5100     1.2190    -0.5190 c3         1 1O8      -0.037900
     19 C14          4.4360    -0.3440    -1.0150 ce         1 1O8      -0.143200
     20 C15          5.4500     0.6100    -1.5950 c          1 1O8       0.905800
     21 O1           5.0960     1.7510    -1.9570 o          1 1O8      -0.825800
     22 O2           6.6080     0.1430    -1.6720 o          1 1O8      -0.825800
     23 H1          -2.6050    -1.5860    -1.6350 hc         1 1O8       0.051200
     24 H2          -0.9430    -1.8310    -1.1270 hc         1 1O8       0.051200
     25 H3          -0.5720     0.6690    -1.3260 hc         1 1O8       0.056200
     26 H4          -1.0010    -0.0750    -2.8560 hc         1 1O8       0.056200
     27 H5          -2.3010     2.0600    -2.3340 hc         1 1O8       0.043700
     28 H6          -3.2750     0.6620    -2.7190 hc         1 1O8       0.043700
     29 H7          -4.3910     2.9490    -1.3650 ha         1 1O8       0.123000
     30 H8          -5.7370     3.2250     0.6770 ha         1 1O8       0.121000
     31 H9          -5.4750     1.6050     2.5460 ha         1 1O8       0.121000
     32 H10         -3.8780    -0.2270     2.3550 ha         1 1O8       0.126000
     33 H11         -2.0520    -1.0990     2.3530 ha         1 1O8       0.113000
     34 H12         -2.1130    -4.1470     1.4430 hc         1 1O8       0.028700
     35 H13         -0.5070    -4.5540     2.0650 hc         1 1O8       0.028700
     36 H14         -1.6280    -3.5900     3.0310 hc         1 1O8       0.028700
     37 H15          1.1680    -3.3190     1.0550 ha         1 1O8       0.108000
     38 H16          0.6350    -0.3180     0.4900 ha         1 1O8       0.130000
     39 H17          2.9800    -2.2120    -0.0450 ha         1 1O8       0.101000
     40 H18          2.1630     1.4500     0.4910 hc         1 1O8       0.035700
     41 H19          3.1700     2.0070    -0.8590 hc         1 1O8       0.035700
     42 H20          1.6240     1.2150    -1.1590 hc         1 1O8       0.035700
     43 H21          4.7920    -1.3700    -0.9440 ha         1 1O8       0.092000
@<TRIPOS>BOND
     1     1     2 1   
     2     1    10 1   
     3     1    23 1   
     4     1    24 1   
     5     2     3 1   
     6     2    25 1   
     7     2    26 1   
     8     3     4 1   
     9     3    27 1   
    10     3    28 1   
    11     4     5 ar  
    12     4     9 ar  
    13     5     6 ar  
    14     5    29 1   
    15     6     7 ar  
    16     6    30 1   
    17     7     8 ar  
    18     7    31 1   
    19     8     9 ar  
    20     8    32 1   
    21     9    10 1   
    22    10    11 2   
    23    11    12 1   
    24    11    33 1   
    25    12    13 1   
    26    12    14 2   
    27    13    34 1   
    28    13    35 1   
    29    13    36 1   
    30    14    15 1   
    31    14    37 1   
    32    15    16 2   
    33    15    38 1   
    34    16    17 1   
    35    16    39 1   
    36    17    18 1   
    37    17    19 2   
    38    18    40 1   
    39    18    41 1   
    40    18    42 1   
    41    19    20 1   
    42    19    43 1   
    43    20    21 1   
    44    20    22 1   
@<TRIPOS>SUBSTRUCTURE
     1 1O8         1 TEMP              0 ****  ****    0 ROOT
