@<TRIPOS>MOLECULE
1O8
   43    44     1     0     0
SMALL
No Charge or Current Charge


@<TRIPOS>ATOM
      1 C2          -1.8300    -1.2540    -1.0920 c6         1 1O8      -0.035200
      2 C1          -1.4020    -0.0320    -1.9240 c6         1 1O8      -0.074400
      3 C18         -2.5660     0.9720    -2.0450 c6         1 1O8      -0.032100
      4 C5          -3.3100     1.2140    -0.7260 ca         1 1O8      -0.059300
      5 C4          -4.1930     2.3090    -0.6530 ca         1 1O8      -0.117000
      6 C3          -4.9250     2.5600     0.5160 ca         1 1O8      -0.116000
      7 C16         -4.7860     1.7090     1.6200 ca         1 1O8      -0.122000
      8 C17         -3.9110     0.6120     1.5590 ca         1 1O8      -0.106000
      9 C6          -3.1540     0.3510     0.3930 ca         1 1O8      -0.029800
     10 C7          -2.2090    -0.8190     0.3340 ce         1 1O8      -0.066400
     11 C8          -1.6950    -1.4800     1.4210 cf         1 1O8      -0.143000
     12 C9          -0.7610    -2.6050     1.4220 cf         1 1O8      -0.146200
     13 C19         -1.3010    -3.8990     2.0030 c3         1 1O8      -0.036900
     14 C10          0.5410    -2.5050     1.0250 ce         1 1O8      -0.119000
     15 C11          1.1960    -1.2870     0.5290 ce         1 1O8      -0.276000
     16 C12          2.4730    -1.2350     0.0580 cf         1 1O8      -0.097000
     17 C13          3.1790    -0.0610    -0.4720 cf         1 1O8      -0.154200
     18 C20          2.6160     1.3160    -0.1180 c3         1 1O8      -0.037900
     19 C14          4.3290    -0.2460    -1.2030 ce         1 1O8      -0.193200
     20 C15          5.2350     0.7550    -1.8670 c          1 1O8       0.695200
     21 O1           4.9670     1.9450    -1.8520 o          1 1O8      -0.720500
     22 O2           6.2210     0.3100    -2.4350 o          1 1O8      -0.720500
     23 H1          -2.6940    -1.7420    -1.5640 hc         1 1O8       0.051200
     24 H2          -1.0250    -1.9980    -1.1030 hc         1 1O8       0.051200
     25 H3          -0.5410     0.4550    -1.4470 hc         1 1O8       0.056200
     26 H4          -1.0720    -0.3470    -2.9230 hc         1 1O8       0.056200
     27 H5          -2.1840     1.9220    -2.4420 hc         1 1O8       0.043700
     28 H6          -3.2840     0.5980    -2.7870 hc         1 1O8       0.043700
     29 H7          -4.3150     2.9670    -1.5110 ha         1 1O8       0.105000
     30 H8          -5.6050     3.4080     0.5630 ha         1 1O8       0.103000
     31 H9          -5.3610     1.8950     2.5250 ha         1 1O8       0.103000
     32 H10         -3.8420    -0.0380     2.4250 ha         1 1O8       0.108000
     33 H11         -2.0020    -1.1550     2.4130 ha         1 1O8       0.163000
     34 H12         -1.6580    -4.5650     1.2080 hc         1 1O8       0.028700
     35 H13         -0.5320    -4.4390     2.5680 hc         1 1O8       0.028700
     36 H14         -2.1400    -3.7190     2.6850 hc         1 1O8       0.028700
     37 H15          1.1660    -3.3990     1.0880 ha         1 1O8       0.158000
     38 H16          0.5910    -0.3820     0.5330 ha         1 1O8       0.180000
     39 H17          3.0310    -2.1740     0.0400 ha         1 1O8       0.151000
     40 H18          1.9800     1.2950     0.7730 hc         1 1O8       0.035700
     41 H19          3.4090     2.0320     0.1200 hc         1 1O8       0.035700
     42 H20          2.0230     1.7260    -0.9430 hc         1 1O8       0.035700
     43 H21          4.6570    -1.2710    -1.3590 ha         1 1O8       0.142000
@<TRIPOS>BOND
     1     1     2 1   
     2     1    10 1   
     3     1    23 1   
     4     1    24 1   
     5     2     3 1   
     6     2    25 1   
     7     2    26 1   
     8     3     4 1   
     9     3    27 1   
    10     3    28 1   
    11     4     5 ar  
    12     4     9 ar  
    13     5     6 ar  
    14     5    29 1   
    15     6     7 ar  
    16     6    30 1   
    17     7     8 ar  
    18     7    31 1   
    19     8     9 ar  
    20     8    32 1   
    21     9    10 1   
    22    10    11 2   
    23    11    12 1   
    24    11    33 1   
    25    12    13 1   
    26    12    14 2   
    27    13    34 1   
    28    13    35 1   
    29    13    36 1   
    30    14    15 1   
    31    14    37 1   
    32    15    16 2   
    33    15    38 1   
    34    16    17 1   
    35    16    39 1   
    36    17    18 1   
    37    17    19 2   
    38    18    40 1   
    39    18    41 1   
    40    18    42 1   
    41    19    20 1   
    42    19    43 1   
    43    20    21 1   
    44    20    22 1   
@<TRIPOS>SUBSTRUCTURE
     1 1O8         1 TEMP              0 ****  ****    0 ROOT
