@<TRIPOS>MOLECULE
1O9
   66    69     1     0     0
SMALL
bcc


@<TRIPOS>ATOM
      1 N1          -0.5840     1.4480     0.0390 n          1 1O9      -0.436800
      2 C2          -1.9060     1.9070     0.4770 c5         1 1O9      -0.002600
      3 C3          -2.8120     0.7200     0.0820 c5         1 1O9      -0.065400
      4 C4          -2.0760     0.0290    -1.0560 c5         1 1O9      -0.131000
      5 C5          -0.5970     0.1600    -0.6330 c5         1 1O9       0.101400
      6 C6          -1.9600     2.0500     2.0330 c          1 1O9       0.939600
      7 O7          -3.0550     2.4580     2.4740 o          1 1O9      -0.813300
      8 O8          -0.9660     1.7210     2.6960 o          1 1O9      -0.813300
      9 C9          -2.3720     3.2250    -0.1680 c3         1 1O9      -0.070400
     10 C10         -2.4980     3.3290    -1.6920 c3         1 1O9      -0.059700
     11 C11         -3.2860     4.5960    -2.0250 c3         1 1O9      -0.083100
     12 C12         -1.1610     3.3560    -2.4290 c3         1 1O9      -0.083100
     13 C13          0.5550     2.0950     0.3480 c          1 1O9       0.710700
     14 O14          0.6060     3.2520     0.7340 o          1 1O9      -0.577100
     15 C15          1.8090     1.2860     0.2100 ca         1 1O9      -0.128600
     16 C16          2.2750     0.5990     1.3270 ca         1 1O9      -0.101000
     17 C17          3.4190    -0.1710     1.2420 ca         1 1O9      -0.141000
     18 C18          4.1330    -0.2950     0.0460 ca         1 1O9      -0.074300
     19 C19          3.6670     0.4200    -1.0530 ca         1 1O9      -0.141000
     20 C20          2.5230     1.2070    -0.9740 ca         1 1O9      -0.101000
     21 C21         -0.1470    -0.9950     0.2160 cc         1 1O9       0.425700
     22 S22          0.9520    -2.1590    -0.4300 ss         1 1O9      -0.216300
     23 C23          0.8440    -3.0490     1.0240 cc         1 1O9      -0.228400
     24 C24         -0.0040    -2.4160     1.8770 cd         1 1O9       0.344200
     25 N25         -0.5640    -1.2640     1.4090 nd         1 1O9      -0.579000
     26 C26         -2.4570    -1.3790    -1.4090 ca         1 1O9       0.325300
     27 N27         -2.1220    -1.7810    -2.6310 nb         1 1O9      -0.652000
     28 C28         -2.4000    -3.0300    -2.9690 ca         1 1O9       0.280900
     29 C29         -3.0270    -3.8990    -2.0880 ca         1 1O9       0.265900
     30 N30         -3.3750    -3.5080    -0.8710 nb         1 1O9      -0.641000
     31 C31         -3.0920    -2.2590    -0.5330 ca         1 1O9       0.307900
     32 C32          5.3470    -1.2150    -0.0130 c3         1 1O9       0.005300
     33 C33          6.3970    -0.7480     1.0020 c3         1 1O9      -0.079767
     34 C34          4.8990    -2.6410     0.3340 c3         1 1O9      -0.079767
     35 C35          5.9920    -1.2390    -1.3990 c3         1 1O9      -0.079767
     36 H1          -2.9220     0.0420     0.9290 hc         1 1O9       0.061200
     37 H2          -3.8100     1.0450    -0.2110 hc         1 1O9       0.061200
     38 H3          -2.1870     0.6130    -1.9710 hc         1 1O9       0.077700
     39 H4           0.0300     0.1850    -1.5270 h1         1 1O9       0.059700
     40 H6          -3.3570     3.4190     0.2590 hc         1 1O9       0.066700
     41 H7          -1.7300     4.0400     0.1770 hc         1 1O9       0.066700
     42 H8          -3.0840     2.4820    -2.0650 hc         1 1O9       0.028700
     43 H9          -2.7790     5.4840    -1.6400 hc         1 1O9       0.023200
     44 H10         -3.3970     4.7220    -3.1040 hc         1 1O9       0.023200
     45 H11         -4.2850     4.5700    -1.5870 hc         1 1O9       0.023200
     46 H12         -0.5140     4.1390    -2.0280 hc         1 1O9       0.023200
     47 H13         -0.6150     2.4160    -2.3600 hc         1 1O9       0.023200
     48 H14         -1.3110     3.5630    -3.4900 hc         1 1O9       0.023200
     49 H15          1.7170     0.6460     2.2540 ha         1 1O9       0.153000
     50 H16          3.7480    -0.7030     2.1270 ha         1 1O9       0.119500
     51 H17          4.1850     0.3690    -2.0010 ha         1 1O9       0.119500
     52 H18          2.1830     1.7400    -1.8560 ha         1 1O9       0.153000
     53 H19          1.3930    -3.9630     1.1810 h4         1 1O9       0.164000
     54 H20         -0.2500    -2.7650     2.8700 h4         1 1O9       0.037100
     55 H21         -2.1240    -3.3530    -3.9660 h4         1 1O9       0.016100
     56 H22         -3.2500    -4.9190    -2.3750 h4         1 1O9       0.016100
     57 H23         -3.3760    -1.9500     0.4640 h4         1 1O9       0.053100
     58 H24          6.0000    -0.7150     2.0180 hc         1 1O9       0.031144
     59 H25          7.2510    -1.4300     1.0090 hc         1 1O9       0.031144
     60 H26          6.7680     0.2490     0.7560 hc         1 1O9       0.031144
     61 H27          4.1270    -2.9890    -0.3560 hc         1 1O9       0.031144
     62 H28          5.7430    -3.3300     0.2710 hc         1 1O9       0.031144
     63 H29          4.4910    -2.7080     1.3430 hc         1 1O9       0.031144
     64 H30          6.3460    -0.2530    -1.7060 hc         1 1O9       0.031144
     65 H31          6.8540    -1.9070    -1.3910 hc         1 1O9       0.031144
     66 H32          5.3040    -1.6050    -2.1640 hc         1 1O9       0.031144
@<TRIPOS>BOND
     1     1     2 1   
     2     1     5 1   
     3     1    13 1   
     4     2     3 1   
     5     2     6 1   
     6     2     9 1   
     7     3     4 1   
     8     3    36 1   
     9     3    37 1   
    10     4     5 1   
    11     4    26 1   
    12     4    38 1   
    13     5    21 1   
    14     5    39 1   
    15     6     7 1   
    16     6     8 1   
    17     9    10 1   
    18     9    40 1   
    19     9    41 1   
    20    10    11 1   
    21    10    12 1   
    22    10    42 1   
    23    11    43 1   
    24    11    44 1   
    25    11    45 1   
    26    12    46 1   
    27    12    47 1   
    28    12    48 1   
    29    13    14 2   
    30    13    15 1   
    31    15    16 ar  
    32    15    20 ar  
    33    16    17 ar  
    34    16    49 1   
    35    17    18 ar  
    36    17    50 1   
    37    18    19 ar  
    38    18    32 1   
    39    19    20 ar  
    40    19    51 1   
    41    20    52 1   
    42    21    22 1   
    43    21    25 2   
    44    22    23 1   
    45    23    24 2   
    46    23    53 1   
    47    24    25 1   
    48    24    54 1   
    49    26    27 ar  
    50    26    31 ar  
    51    27    28 ar  
    52    28    29 ar  
    53    28    55 1   
    54    29    30 ar  
    55    29    56 1   
    56    30    31 ar  
    57    31    57 1   
    58    32    33 1   
    59    32    34 1   
    60    32    35 1   
    61    33    58 1   
    62    33    59 1   
    63    33    60 1   
    64    34    61 1   
    65    34    62 1   
    66    34    63 1   
    67    35    64 1   
    68    35    65 1   
    69    35    66 1   
@<TRIPOS>SUBSTRUCTURE
     1 1O9         1 TEMP              0 ****  ****    0 ROOT
