@<TRIPOS>MOLECULE
1O9
   66    69     1     0     0
SMALL
No Charge or Current Charge


@<TRIPOS>ATOM
      1 N1          -0.7110     1.2320     0.2020 n          1 1O9      -0.369800
      2 C2          -2.0760     1.8060     0.5010 c5         1 1O9      -0.002600
      3 C3          -3.0320     0.6760    -0.0380 c5         1 1O9      -0.065400
      4 C4          -2.1880    -0.0400    -1.1370 c5         1 1O9      -0.131000
      5 C5          -0.7680    -0.1000    -0.4830 c5         1 1O9       0.101400
      6 C6          -2.3950     1.9290     2.0650 c          1 1O9       0.729000
      7 O7          -3.0120     2.8990     2.4900 o          1 1O9      -0.708000
      8 O8          -1.9990     1.0620     2.8350 o          1 1O9      -0.708000
      9 C9          -2.3140     3.2000    -0.2040 c3         1 1O9      -0.070400
     10 C10         -2.1790     3.3750    -1.7500 c3         1 1O9      -0.059700
     11 C11         -2.7140     4.7640    -2.1760 c3         1 1O9      -0.083100
     12 C12         -0.7390     3.1880    -2.2870 c3         1 1O9      -0.083100
     13 C13          0.4500     1.6860     0.8840 c          1 1O9       0.643700
     14 O14          0.4090     2.6260     1.6700 o          1 1O9      -0.577100
     15 C15          1.7820     1.0540     0.5540 ca         1 1O9      -0.128600
     16 C16          2.6290     0.6510     1.6020 ca         1 1O9      -0.083000
     17 C17          3.8660     0.0450     1.3290 ca         1 1O9      -0.123000
     18 C18          4.3070    -0.1590     0.0010 ca         1 1O9      -0.074300
     19 C19          3.4670     0.2920    -1.0460 ca         1 1O9      -0.123000
     20 C20          2.2280     0.8950    -0.7730 ca         1 1O9      -0.083000
     21 C21         -0.5030    -1.3240     0.4080 cc         1 1O9       0.425700
     22 S22          0.9440    -2.2770     0.1580 ss         1 1O9      -0.071400
     23 C23          0.4220    -3.3150     1.4490 cc         1 1O9      -0.290000
     24 C24         -0.7820    -2.9020     1.9630 cd         1 1O9       0.278900
     25 N25         -1.3120    -1.7710     1.3650 nd         1 1O9      -0.579000
     26 C26         -2.6900    -1.4620    -1.4600 ca         1 1O9       0.325300
     27 N27         -1.8670    -2.2520    -2.2110 nb         1 1O9      -0.652000
     28 C28         -2.3250    -3.4960    -2.5140 ca         1 1O9       0.280900
     29 C29         -3.5980    -3.9580    -2.0950 ca         1 1O9       0.265900
     30 N30         -4.4470    -3.1840    -1.3690 nb         1 1O9      -0.641000
     31 C31         -3.9830    -1.9390    -1.0620 ca         1 1O9       0.307900
     32 C32          5.6720    -0.8520    -0.2540 c3         1 1O9       0.005300
     33 C33          6.8040    -0.0180     0.4050 c3         1 1O9      -0.079767
     34 C34          5.6460    -2.2730     0.3720 c3         1 1O9      -0.079767
     35 C35          6.0060    -1.0030    -1.7660 c3         1 1O9      -0.079767
     36 H1          -3.3020    -0.0140     0.7690 hc         1 1O9       0.061200
     37 H2          -3.9750     1.0790    -0.4270 hc         1 1O9       0.061200
     38 H3          -2.1570     0.5490    -2.0570 hc         1 1O9       0.077700
     39 H4          -0.0430    -0.1440    -1.3020 h1         1 1O9       0.059700
     40 H6          -3.3310     3.5230     0.0490 hc         1 1O9       0.066700
     41 H7          -1.6570     3.9410     0.2690 hc         1 1O9       0.066700
     42 H8          -2.8280     2.6420    -2.2410 hc         1 1O9       0.028700
     43 H9          -2.1170     5.5670    -1.7280 hc         1 1O9       0.023200
     44 H10         -2.6780     4.8770    -3.2670 hc         1 1O9       0.023200
     45 H11         -3.7570     4.8940    -1.8630 hc         1 1O9       0.023200
     46 H12         -0.0230     3.7870    -1.7120 hc         1 1O9       0.023200
     47 H13         -0.4290     2.1410    -2.2480 hc         1 1O9       0.023200
     48 H14         -0.6740     3.4960    -3.3380 hc         1 1O9       0.023200
     49 H15          2.3160     0.7870     2.6360 ha         1 1O9       0.135000
     50 H16          4.4800    -0.2720     2.1670 ha         1 1O9       0.101500
     51 H17          3.7530     0.1860    -2.0880 ha         1 1O9       0.101500
     52 H18          1.6240     1.2520    -1.6030 ha         1 1O9       0.135000
     53 H19          1.0270    -4.1610     1.7450 h4         1 1O9       0.146000
     54 H20         -1.3220    -3.3820     2.7700 h4         1 1O9       0.037100
     55 H21         -1.6660    -4.1310    -3.1030 h4         1 1O9       0.016100
     56 H22         -3.9430    -4.9590    -2.3520 h4         1 1O9       0.016100
     57 H23         -4.6710    -1.3130    -0.4970 h4         1 1O9       0.053100
     58 H24          6.6790     0.0470     1.4910 hc         1 1O9       0.031144
     59 H25          7.7850    -0.4680     0.2120 hc         1 1O9       0.031144
     60 H26          6.8140     1.0030     0.0040 hc         1 1O9       0.031144
     61 H27          4.8260    -2.8660    -0.0520 hc         1 1O9       0.031144
     62 H28          6.5850    -2.8050     0.1770 hc         1 1O9       0.031144
     63 H29          5.5080    -2.2350     1.4580 hc         1 1O9       0.031144
     64 H30          6.0670    -0.0240    -2.2570 hc         1 1O9       0.031144
     65 H31          6.9730    -1.5010    -1.9050 hc         1 1O9       0.031144
     66 H32          5.2470    -1.6060    -2.2800 hc         1 1O9       0.031144
@<TRIPOS>BOND
     1     1     2 1   
     2     1     5 1   
     3     1    13 1   
     4     2     3 1   
     5     2     6 1   
     6     2     9 1   
     7     3     4 1   
     8     3    36 1   
     9     3    37 1   
    10     4     5 1   
    11     4    26 1   
    12     4    38 1   
    13     5    21 1   
    14     5    39 1   
    15     6     7 1   
    16     6     8 1   
    17     9    10 1   
    18     9    40 1   
    19     9    41 1   
    20    10    11 1   
    21    10    12 1   
    22    10    42 1   
    23    11    43 1   
    24    11    44 1   
    25    11    45 1   
    26    12    46 1   
    27    12    47 1   
    28    12    48 1   
    29    13    14 2   
    30    13    15 1   
    31    15    16 ar  
    32    15    20 ar  
    33    16    17 ar  
    34    16    49 1   
    35    17    18 ar  
    36    17    50 1   
    37    18    19 ar  
    38    18    32 1   
    39    19    20 ar  
    40    19    51 1   
    41    20    52 1   
    42    21    22 1   
    43    21    25 2   
    44    22    23 1   
    45    23    24 2   
    46    23    53 1   
    47    24    25 1   
    48    24    54 1   
    49    26    27 ar  
    50    26    31 ar  
    51    27    28 ar  
    52    28    29 ar  
    53    28    55 1   
    54    29    30 ar  
    55    29    56 1   
    56    30    31 ar  
    57    31    57 1   
    58    32    33 1   
    59    32    34 1   
    60    32    35 1   
    61    33    58 1   
    62    33    59 1   
    63    33    60 1   
    64    34    61 1   
    65    34    62 1   
    66    34    63 1   
    67    35    64 1   
    68    35    65 1   
    69    35    66 1   
@<TRIPOS>SUBSTRUCTURE
     1 1O9         1 TEMP              0 ****  ****    0 ROOT
