@<TRIPOS>MOLECULE
1OA
   44    47     1     0     0
SMALL
bcc


@<TRIPOS>ATOM
      1 C1          -4.0210     1.0420    -0.0950 ca         1 1OA      -0.148000
      2 C2          -5.3070     1.5670    -0.0880 ca         1 1OA      -0.140500
      3 C3          -6.3910     0.7270    -0.2280 ca         1 1OA       0.101900
      4 C4          -6.2280    -0.6360    -0.3780 ca         1 1OA      -0.140500
      5 C5          -4.9470    -1.1580    -0.3800 ca         1 1OA      -0.148000
      6 C6          -3.8260    -0.3340    -0.2380 ca         1 1OA       0.068600
      7 N7          -2.5810    -0.9660    -0.2570 ns         1 1OA      -0.474100
      8 C8          -1.3470    -0.4450    -0.0030 c          1 1OA       0.733300
      9 O9          -1.1530     0.7410     0.2150 o          1 1OA      -0.570100
     10 C10         -0.2610    -1.4240    -0.0080 cc         1 1OA      -0.388800
     11 C11         -0.3020    -2.8290    -0.0750 cc         1 1OA       0.417500
     12 N12          0.8840    -3.3920    -0.0290 nd         1 1OA      -0.550100
     13 N13          1.7330    -2.3560     0.0680 na         1 1OA       0.031200
     14 C14          1.1040    -1.1270     0.0900 cd         1 1OA       0.478500
     15 N15          1.7850     0.0120     0.1780 nd         1 1OA      -0.653000
     16 C16          3.0960    -0.0680     0.2580 cc         1 1OA       0.511600
     17 C17          3.7910    -1.2930     0.2490 cc         1 1OA      -0.417300
     18 C18          3.0800    -2.4600     0.1470 cd         1 1OA       0.270800
     19 O19          3.5440    -3.6860     0.1180 oh         1 1OA      -0.444100
     20 C20          3.8760     1.2140     0.3080 c6         1 1OA      -0.115000
     21 C21          4.0840     1.7510    -1.1170 c6         1 1OA      -0.109900
     22 C22          4.8490     3.0720    -1.0810 c6         1 1OA       0.149300
     23 N23          4.2490     4.0820    -0.2250 n7         1 1OA      -0.788200
     24 C24          4.0310     3.5800     1.1220 c6         1 1OA       0.149300
     25 C25          3.2210     2.2870     1.1790 c6         1 1OA      -0.109900
     26 F26         -7.6330     1.2420    -0.2200 f          1 1OA      -0.146900
     27 H1          -3.1870     1.7140     0.0080 ha         1 1OA       0.149500
     28 H2          -5.4520     2.6340     0.0220 ha         1 1OA       0.148500
     29 H3          -7.0840    -1.2890    -0.4880 ha         1 1OA       0.148500
     30 H4          -4.8180    -2.2280    -0.4900 ha         1 1OA       0.149500
     31 H5          -2.6280    -1.9530    -0.4570 hn         1 1OA       0.312500
     32 H6          -1.1690    -3.4700    -0.1480 h4         1 1OA       0.046800
     33 H7           4.8700    -1.3210     0.3180 ha         1 1OA       0.161000
     34 H9           4.8650     0.9900     0.7240 hc         1 1OA       0.054700
     35 H10          4.6270     1.0220    -1.7240 hc         1 1OA       0.058950
     36 H11          3.1080     1.9020    -1.5910 hc         1 1OA       0.058950
     37 H12          5.8680     2.8860    -0.7240 h1         1 1OA       0.052700
     38 H13          4.9420     3.4760    -2.0910 h1         1 1OA       0.052700
     39 H14          3.3560     4.3540    -0.6210 hn         1 1OA       0.353800
     40 H16          5.0100     3.4150     1.5850 h1         1 1OA       0.052700
     41 H17          3.5370     4.3560     1.7110 h1         1 1OA       0.052700
     42 H18          2.2030     2.4740     0.8270 hc         1 1OA       0.058950
     43 H19          3.1440     1.9390     2.2130 hc         1 1OA       0.058950
     44 H8           4.5100    -3.6890     0.1710 ho         1 1OA       0.460000
@<TRIPOS>BOND
     1     1     2 ar  
     2     1     6 ar  
     3     1    27 1   
     4     2     3 ar  
     5     2    28 1   
     6     3     4 ar  
     7     3    26 1   
     8     4     5 ar  
     9     4    29 1   
    10     5     6 ar  
    11     5    30 1   
    12     6     7 1   
    13     7     8 1   
    14     7    31 1   
    15     8     9 2   
    16     8    10 1   
    17    10    11 1   
    18    10    14 2   
    19    11    12 2   
    20    11    32 1   
    21    12    13 1   
    22    13    14 1   
    23    13    18 1   
    24    14    15 1   
    25    15    16 2   
    26    16    17 1   
    27    16    20 1   
    28    17    18 2   
    29    17    33 1   
    30    18    19 1   
    31    19    44 1   
    32    20    21 1   
    33    20    25 1   
    34    20    34 1   
    35    21    22 1   
    36    21    35 1   
    37    21    36 1   
    38    22    23 1   
    39    22    37 1   
    40    22    38 1   
    41    23    24 1   
    42    23    39 1   
    43    24    25 1   
    44    24    40 1   
    45    24    41 1   
    46    25    42 1   
    47    25    43 1   
@<TRIPOS>SUBSTRUCTURE
     1 1OA         1 TEMP              0 ****  ****    0 ROOT
