@<TRIPOS>MOLECULE
1OA
   44    47     1     0     0
SMALL
No Charge or Current Charge


@<TRIPOS>ATOM
      1 C1          -4.1690     1.0300    -0.2170 ca         1 1OA      -0.130000
      2 C2          -5.4930     1.4970    -0.3180 ca         1 1OA      -0.122500
      3 C3          -6.5500     0.5860    -0.4540 ca         1 1OA       0.137000
      4 C4          -6.2940    -0.7920    -0.4880 ca         1 1OA      -0.122500
      5 C5          -4.9710    -1.2600    -0.3870 ca         1 1OA      -0.130000
      6 C6          -3.8970    -0.3570    -0.2540 ca         1 1OA      -0.024000
      7 N7          -2.5880    -0.9090    -0.1540 ns         1 1OA      -0.148000
      8 C8          -1.3250    -0.3290    -0.1080 c          1 1OA       0.666300
      9 O9          -1.1340     0.8780    -0.1730 o          1 1OA      -0.570100
     10 C10         -0.2450    -1.3190     0.0210 cc         1 1OA      -0.388800
     11 C11         -0.3980    -2.7280     0.1010 cc         1 1OA       0.417500
     12 N12          0.7310    -3.4190     0.2150 nd         1 1OA      -0.550100
     13 N13          1.6370    -2.3700     0.2050 na         1 1OA       0.081900
     14 C14          1.0930    -1.1090     0.0920 cd         1 1OA       0.478500
     15 N15          1.6990     0.1260     0.0530 nd         1 1OA      -0.653000
     16 C16          3.0200    -0.0280     0.1450 cc         1 1OA       0.446300
     17 C17          3.7000    -1.3050     0.2680 cc         1 1OA      -0.334000
     18 C18          3.0210    -2.5090     0.3010 cd         1 1OA       0.220100
     19 O19          3.6060    -3.7220     0.4130 oh         1 1OA      -0.483100
     20 C20          3.9400     1.1880     0.1260 c6         1 1OA      -0.115000
     21 C21          3.8190     1.9730    -1.2130 c6         1 1OA      -0.109900
     22 C22          4.7100     3.2390    -1.2010 c6         1 1OA       0.149300
     23 N23          4.3870     4.1050    -0.0400 n7         1 1OA      -0.843400
     24 C24          4.5430     3.4050     1.2580 c6         1 1OA       0.149300
     25 C25          3.6470     2.1440     1.3200 c6         1 1OA      -0.109900
     26 F26         -7.8200     1.0370    -0.5510 f          1 1OA      -0.182000
     27 H1          -3.3760     1.7630    -0.1050 ha         1 1OA       0.131500
     28 H2          -5.7000     2.5640    -0.2890 ha         1 1OA       0.130500
     29 H3          -7.1180    -1.4940    -0.5920 ha         1 1OA       0.130500
     30 H4          -4.7830    -2.3320    -0.4140 ha         1 1OA       0.131500
     31 H5          -2.5820    -1.9180    -0.1060 hn         1 1OA       0.146000
     32 H6          -1.3250    -3.2860     0.0780 h4         1 1OA       0.046800
     33 H7           4.7810    -1.3050     0.3350 ha         1 1OA       0.143000
     34 H9           4.9880     0.8710     0.2190 hc         1 1OA       0.054700
     35 H10          4.1080     1.3280    -2.0540 hc         1 1OA       0.058950
     36 H11          2.7750     2.2660    -1.3910 hc         1 1OA       0.058950
     37 H12          5.7690     2.9430    -1.1560 h1         1 1OA       0.052700
     38 H13          4.5650     3.8010    -2.1350 h1         1 1OA       0.052700
     39 H14          3.4060     4.4010    -0.1270 hn         1 1OA       0.409000
     40 H16          5.5960     3.1150     1.3960 h1         1 1OA       0.052700
     41 H17          4.2790     4.0860     2.0820 h1         1 1OA       0.052700
     42 H18          2.5910     2.4490     1.3150 hc         1 1OA       0.058950
     43 H19          3.8150     1.6200     2.2710 hc         1 1OA       0.058950
     44 H8           4.5730    -3.5690     0.4640 ho         1 1OA       0.499000
@<TRIPOS>BOND
     1     1     2 ar  
     2     1     6 ar  
     3     1    27 1   
     4     2     3 ar  
     5     2    28 1   
     6     3     4 ar  
     7     3    26 1   
     8     4     5 ar  
     9     4    29 1   
    10     5     6 ar  
    11     5    30 1   
    12     6     7 1   
    13     7     8 1   
    14     7    31 1   
    15     8     9 2   
    16     8    10 1   
    17    10    11 1   
    18    10    14 2   
    19    11    12 2   
    20    11    32 1   
    21    12    13 1   
    22    13    14 1   
    23    13    18 1   
    24    14    15 1   
    25    15    16 2   
    26    16    17 1   
    27    16    20 1   
    28    17    18 2   
    29    17    33 1   
    30    18    19 1   
    31    19    44 1   
    32    20    21 1   
    33    20    25 1   
    34    20    34 1   
    35    21    22 1   
    36    21    35 1   
    37    21    36 1   
    38    22    23 1   
    39    22    37 1   
    40    22    38 1   
    41    23    24 1   
    42    23    39 1   
    43    24    25 1   
    44    24    40 1   
    45    24    41 1   
    46    25    42 1   
    47    25    43 1   
@<TRIPOS>SUBSTRUCTURE
     1 1OA         1 TEMP              0 ****  ****    0 ROOT
