@<TRIPOS>MOLECULE
1OB
   43    46     1     0     0
SMALL
bcc


@<TRIPOS>ATOM
      1 C1          -2.0990     3.1450    -1.2610 ca         1 1OB      -0.113000
      2 C2          -1.0030     3.9880    -1.2680 ca         1 1OB      -0.084000
      3 C3          -0.4870     4.4520    -0.0580 ca         1 1OB      -0.011000
      4 C4          -1.0760     4.0730     1.1490 ca         1 1OB      -0.084000
      5 C5          -2.1710     3.2290     1.1350 ca         1 1OB      -0.113000
      6 C6          -2.6910     2.7530    -0.0640 ca         1 1OB      -0.048300
      7 C7          -3.8570     1.8120    -0.0690 c3         1 1OB      -0.087400
      8 C8          -3.4520     0.3600    -0.0500 cc         1 1OB       0.499600
      9 C9          -4.4710    -0.6130    -0.1230 cc         1 1OB      -0.425300
     10 C10         -4.1210    -1.9360    -0.1160 cd         1 1OB       0.273800
     11 N11         -2.7990    -2.2240    -0.0340 na         1 1OB       0.031200
     12 C12         -1.8500    -1.2250     0.0470 cd         1 1OB       0.471500
     13 N13         -2.1780     0.0670     0.0340 nd         1 1OB      -0.640000
     14 C14         -0.6280    -1.8990     0.1060 cc         1 1OB      -0.381800
     15 C15         -0.9810    -3.2600     0.0590 cc         1 1OB       0.414500
     16 N16         -2.2780    -3.4600    -0.0200 nd         1 1OB      -0.546100
     17 C17          0.6920    -1.2760     0.2380 c          1 1OB       0.732300
     18 O18          0.8340    -0.1300     0.6270 o          1 1OB      -0.560100
     19 N19          1.7280    -2.0930    -0.1090 ns         1 1OB      -0.475100
     20 C20          3.1020    -1.8570    -0.0240 ca         1 1OB       0.067600
     21 C21          3.6800    -0.6860     0.4720 ca         1 1OB      -0.148500
     22 C22          5.0620    -0.5580     0.5230 ca         1 1OB      -0.140000
     23 C23          5.8620    -1.5890     0.0770 ca         1 1OB       0.102900
     24 C24          5.3190    -2.7560    -0.4210 ca         1 1OB      -0.140000
     25 C25          3.9420    -2.8830    -0.4670 ca         1 1OB      -0.148500
     26 F26          7.1990    -1.4560     0.1300 f          1 1OB      -0.145900
     27 O27         -4.9110    -2.9800    -0.1830 oh         1 1OB      -0.443100
     28 C28          0.6440     5.3210    -0.0540 cg         1 1OB       0.237800
     29 N29          1.5600     6.0210    -0.0540 n1         1 1OB      -0.366800
     30 H1          -2.4980     2.7870    -2.2020 ha         1 1OB       0.133000
     31 H2          -0.5470     4.2850    -2.2030 ha         1 1OB       0.143500
     32 H3          -0.6770     4.4360     2.0860 ha         1 1OB       0.143500
     33 H4          -2.6260     2.9360     2.0730 ha         1 1OB       0.133000
     34 H5          -4.5030     1.9940     0.7950 hc         1 1OB       0.067700
     35 H6          -4.4830     1.9800    -0.9490 hc         1 1OB       0.067700
     36 H7          -5.5120    -0.3260    -0.1910 ha         1 1OB       0.160000
     37 H9          -0.3260    -4.1170     0.1040 h4         1 1OB       0.049800
     38 H10          1.4860    -2.9820    -0.5170 hn         1 1OB       0.314500
     39 H11          3.0710     0.1310     0.8200 ha         1 1OB       0.150000
     40 H12          5.5030     0.3500     0.9110 ha         1 1OB       0.149000
     41 H13          5.9540    -3.5610    -0.7680 ha         1 1OB       0.149000
     42 H14          3.5140    -3.7990    -0.8560 ha         1 1OB       0.150000
     43 H8          -5.8370    -2.7080    -0.2350 ho         1 1OB       0.460000
@<TRIPOS>BOND
     1     1     2 ar  
     2     1     6 ar  
     3     1    30 1   
     4     2     3 ar  
     5     2    31 1   
     6     3     4 ar  
     7     3    28 1   
     8     4     5 ar  
     9     4    32 1   
    10     5     6 ar  
    11     5    33 1   
    12     6     7 1   
    13     7     8 1   
    14     7    34 1   
    15     7    35 1   
    16     8     9 1   
    17     8    13 2   
    18     9    10 2   
    19     9    36 1   
    20    10    11 1   
    21    10    27 1   
    22    11    12 1   
    23    11    16 1   
    24    12    13 1   
    25    12    14 2   
    26    14    15 1   
    27    14    17 1   
    28    15    16 2   
    29    15    37 1   
    30    17    18 2   
    31    17    19 1   
    32    19    20 1   
    33    19    38 1   
    34    20    21 ar  
    35    20    25 ar  
    36    21    22 ar  
    37    21    39 1   
    38    22    23 ar  
    39    22    40 1   
    40    23    24 ar  
    41    23    26 1   
    42    24    25 ar  
    43    24    41 1   
    44    25    42 1   
    45    27    43 1   
    46    28    29 3   
@<TRIPOS>SUBSTRUCTURE
     1 1OB         1 TEMP              0 ****  ****    0 ROOT
