@<TRIPOS>MOLECULE
1OB
   43    46     1     0     0
SMALL
No Charge or Current Charge


@<TRIPOS>ATOM
      1 C1          -4.0960     3.6690     0.1070 ca         1 1OB      -0.095000
      2 C2          -4.1140     4.8410    -0.6700 ca         1 1OB      -0.066000
      3 C3          -2.9060     5.4430    -1.0730 ca         1 1OB      -0.011000
      4 C4          -1.6810     4.8630    -0.6920 ca         1 1OB      -0.066000
      5 C5          -1.6650     3.6910     0.0840 ca         1 1OB      -0.095000
      6 C6          -2.8710     3.0880     0.4890 ca         1 1OB      -0.048300
      7 C7          -2.8440     1.8150     1.3240 c3         1 1OB      -0.087400
      8 C8          -2.4770     0.5960     0.5180 cc         1 1OB       0.434300
      9 C9          -3.4930     0.0730    -0.3700 cc         1 1OB      -0.342000
     10 C10         -3.2810    -1.0340    -1.1700 cd         1 1OB       0.223100
     11 N11         -2.0050    -1.5820    -1.0320 na         1 1OB       0.081900
     12 C12         -1.1130    -1.0020    -0.1550 cd         1 1OB       0.471500
     13 N13         -1.2540     0.0930     0.6700 nd         1 1OB      -0.640000
     14 C14          0.0090    -1.7560    -0.2570 cc         1 1OB      -0.381800
     15 C15         -0.3110    -2.7560    -1.2140 cc         1 1OB       0.414500
     16 N16         -1.5390    -2.6910    -1.7200 nd         1 1OB      -0.546100
     17 C17          1.2880    -1.6000     0.4510 c          1 1OB       0.665300
     18 O18          1.5060    -0.7150     1.2660 o          1 1OB      -0.560100
     19 N19          2.2270    -2.5610     0.0920 ns         1 1OB      -0.149000
     20 C20          3.5630    -2.8080     0.5180 ca         1 1OB      -0.025000
     21 C21          4.2000    -2.0920     1.5590 ca         1 1OB      -0.130500
     22 C22          5.5240    -2.3990     1.9240 ca         1 1OB      -0.122000
     23 C23          6.2180    -3.4190     1.2580 ca         1 1OB       0.138000
     24 C24          5.5970    -4.1380     0.2280 ca         1 1OB      -0.122000
     25 C25          4.2730    -3.8330    -0.1390 ca         1 1OB      -0.130500
     26 F26          7.4890    -3.7110     1.6110 f          1 1OB      -0.181000
     27 O27         -4.1930    -1.5620    -2.0150 oh         1 1OB      -0.482100
     28 C28         -2.9240     6.6400    -1.8670 cg         1 1OB       0.327000
     29 N29         -2.9490     7.6130    -2.5130 n1         1 1OB      -0.456000
     30 H1          -5.0360     3.2150     0.4110 ha         1 1OB       0.115000
     31 H2          -5.0680     5.2800    -0.9570 ha         1 1OB       0.125500
     32 H3          -0.7400     5.3170    -0.9980 ha         1 1OB       0.125500
     33 H4          -0.7130     3.2500     0.3710 ha         1 1OB       0.115000
     34 H5          -2.1370     1.9380     2.1540 hc         1 1OB       0.067700
     35 H6          -3.8170     1.6490     1.8000 hc         1 1OB       0.067700
     36 H7          -4.4490     0.5850    -0.3950 ha         1 1OB       0.142000
     37 H9           0.3330    -3.5510    -1.5660 h4         1 1OB       0.049800
     38 H10          1.9020    -3.2160    -0.6050 hn         1 1OB       0.148000
     39 H11          3.6910    -1.3020     2.1010 ha         1 1OB       0.132000
     40 H12          6.0120    -1.8470     2.7240 ha         1 1OB       0.131000
     41 H13          6.1390    -4.9290    -0.2850 ha         1 1OB       0.131000
     42 H14          3.8000    -4.3980    -0.9400 ha         1 1OB       0.132000
     43 H8          -5.0020    -1.0140    -1.9400 ho         1 1OB       0.499000
@<TRIPOS>BOND
     1     1     2 ar  
     2     1     6 ar  
     3     1    30 1   
     4     2     3 ar  
     5     2    31 1   
     6     3     4 ar  
     7     3    28 1   
     8     4     5 ar  
     9     4    32 1   
    10     5     6 ar  
    11     5    33 1   
    12     6     7 1   
    13     7     8 1   
    14     7    34 1   
    15     7    35 1   
    16     8     9 1   
    17     8    13 2   
    18     9    10 2   
    19     9    36 1   
    20    10    11 1   
    21    10    27 1   
    22    11    12 1   
    23    11    16 1   
    24    12    13 1   
    25    12    14 2   
    26    14    15 1   
    27    14    17 1   
    28    15    16 2   
    29    15    37 1   
    30    17    18 2   
    31    17    19 1   
    32    19    20 1   
    33    19    38 1   
    34    20    21 ar  
    35    20    25 ar  
    36    21    22 ar  
    37    21    39 1   
    38    22    23 ar  
    39    22    40 1   
    40    23    24 ar  
    41    23    26 1   
    42    24    25 ar  
    43    24    41 1   
    44    25    42 1   
    45    27    43 1   
    46    28    29 3   
@<TRIPOS>SUBSTRUCTURE
     1 1OB         1 TEMP              0 ****  ****    0 ROOT
