@<TRIPOS>MOLECULE
1OC
   61    66     1     0     0
SMALL
No Charge or Current Charge


@<TRIPOS>ATOM
      1 C1          -7.7130     2.6320     0.7320 ca         1 1OC      -0.126000
      2 C2          -8.8550     2.5160    -0.0750 ca         1 1OC      -0.084000
      3 C3          -9.0560     1.3520    -0.8340 ca         1 1OC      -0.152000
      4 C4          -8.1210     0.3050    -0.7820 ca         1 1OC       0.177000
      5 C5          -6.9580     0.3980     0.0320 cp         1 1OC      -0.061000
      6 C6          -6.7750     1.5860     0.7840 ca         1 1OC      -0.082000
      7 C7          -5.9450    -0.7030     0.1070 cp         1 1OC      -0.131000
      8 C8          -4.5570    -0.4190     0.1250 ca         1 1OC      -0.010000
      9 C9          -3.6810    -1.5090     0.2050 ca         1 1OC      -0.173800
     10 C10         -2.2530    -1.5500     0.2360 cc         1 1OC       0.025400
     11 C11         -1.8780    -2.8780     0.3190 cd         1 1OC      -0.173100
     12 N12         -3.0590    -3.6650     0.3380 na         1 1OC      -0.321400
     13 C14         -4.1390    -2.8040     0.2670 ca         1 1OC       0.386500
     14 N15         -5.4480    -3.1110     0.2590 nb         1 1OC      -0.684000
     15 C16         -6.3250    -2.0760     0.1800 ca         1 1OC       0.387900
     16 N17         -1.4550    -0.4150     0.1890 ns         1 1OC      -0.394100
     17 C18         -0.0750    -0.3280     0.2130 c          1 1OC       0.665300
     18 O19          0.6410    -1.3150     0.2840 o          1 1OC      -0.593100
     19 C20          0.4230     1.0500     0.1450 cc         1 1OC      -0.409800
     20 C21         -0.3570     2.2340     0.0610 cc         1 1OC       0.426500
     21 N22          0.3270     3.3730     0.0110 nd         1 1OC      -0.580100
     22 N23          1.6050     2.8650     0.0670 na         1 1OC       0.073900
     23 C24          1.7080     1.4840     0.1480 cd         1 1OC       0.505500
     24 N25          2.8190     0.6730     0.2180 nd         1 1OC      -0.740000
     25 C26          3.8780     1.4580     0.1950 cc         1 1OC       0.660900
     26 C27          3.9070     2.8970     0.1140 cc         1 1OC      -0.267000
     27 C28          2.7460     3.6580     0.0460 cd         1 1OC      -0.002000
     28 N29          5.0910     0.8530     0.2550 nu         1 1OC      -0.917100
     29 C30          5.3630    -0.5890     0.1590 c3         1 1OC       0.229800
     30 C31          6.8710    -0.9090     0.3880 c6         1 1OC      -0.109700
     31 C32          7.0840    -2.4450     0.5360 c6         1 1OC      -0.112400
     32 C33          8.5770    -2.8040     0.7370 c6         1 1OC       0.147800
     33 N34          9.4020    -2.2870    -0.3810 n7         1 1OC      -0.845400
     34 C35          9.2720    -0.8100    -0.5450 c6         1 1OC       0.129800
     35 C36          7.7940    -0.3640    -0.7450 c6         1 1OC       0.150300
     36 F37          7.7700     1.0480    -0.7240 f          1 1OC      -0.277000
     37 F38         -8.3380    -0.7860    -1.5520 f          1 1OC      -0.176000
     38 H1          -7.5540     3.5330     1.3210 ha         1 1OC       0.118000
     39 H2          -9.5800     3.3270    -0.1150 ha         1 1OC       0.117000
     40 H3          -9.9350     1.2590    -1.4670 ha         1 1OC       0.132000
     41 H4          -5.9020     1.6930     1.4240 ha         1 1OC       0.118000
     42 H5          -4.1880     0.6020     0.0690 ha         1 1OC       0.114000
     43 H6          -0.8840    -3.3180     0.3640 h4         1 1OC       0.245000
     44 H7          -3.1230    -4.6750     0.3940 hn         1 1OC       0.363000
     45 H8          -7.3780    -2.3540     0.1940 h4         1 1OC       0.025100
     46 H9          -1.9270     0.4740     0.1290 hn         1 1OC       0.317500
     47 H10         -1.4370     2.3010     0.0350 h4         1 1OC       0.041800
     48 H11          4.8690     3.3950     0.1090 ha         1 1OC       0.143000
     49 H12          2.6570     4.7370    -0.0160 h4         1 1OC       0.163000
     50 H13          5.8750     1.4780     0.0830 hn         1 1OC       0.511000
     51 H14          4.7770    -1.1260     0.9180 h1         1 1OC       0.069200
     52 H15          5.0590    -0.9730    -0.8260 h1         1 1OC       0.069200
     53 H16          7.1550    -0.4340     1.3380 hc         1 1OC       0.071700
     54 H17          6.5050    -2.8240     1.3890 hc         1 1OC       0.056200
     55 H18          6.7010    -2.9650    -0.3540 hc         1 1OC       0.056200
     56 H19          8.9320    -2.3770     1.6880 h1         1 1OC       0.059700
     57 H20          8.6880    -3.8970     0.8070 h1         1 1OC       0.059700
     58 H21          9.0920    -2.7440    -1.2490 hn         1 1OC       0.411000
     59 H23          9.6770    -0.3090     0.3480 h1         1 1OC       0.069200
     60 H24          9.8710    -0.4770    -1.4050 h1         1 1OC       0.069200
     61 H25          7.4310    -0.6930    -1.7290 h1         1 1OC       0.057700
@<TRIPOS>BOND
     1     1     2 ar  
     2     1     6 ar  
     3     1    38 1   
     4     2     3 ar  
     5     2    39 1   
     6     3     4 ar  
     7     3    40 1   
     8     4     5 ar  
     9     4    37 1   
    10     5     6 ar  
    11     5     7 1   
    12     6    41 1   
    13     7     8 ar  
    14     7    15 ar  
    15     8     9 ar  
    16     8    42 1   
    17     9    10 1   
    18     9    13 ar  
    19    10    11 2   
    20    10    16 1   
    21    11    12 1   
    22    11    43 1   
    23    12    13 1   
    24    12    44 1   
    25    13    14 ar  
    26    14    15 ar  
    27    15    45 1   
    28    16    17 1   
    29    16    46 1   
    30    17    18 2   
    31    17    19 1   
    32    19    20 1   
    33    19    23 2   
    34    20    21 2   
    35    20    47 1   
    36    21    22 1   
    37    22    23 1   
    38    22    27 1   
    39    23    24 1   
    40    24    25 2   
    41    25    26 1   
    42    25    28 1   
    43    26    27 2   
    44    26    48 1   
    45    27    49 1   
    46    28    29 1   
    47    28    50 1   
    48    29    30 1   
    49    29    51 1   
    50    29    52 1   
    51    30    31 1   
    52    30    35 1   
    53    30    53 1   
    54    31    32 1   
    55    31    54 1   
    56    31    55 1   
    57    32    33 1   
    58    32    56 1   
    59    32    57 1   
    60    33    34 1   
    61    33    58 1   
    62    34    35 1   
    63    34    59 1   
    64    34    60 1   
    65    35    36 1   
    66    35    61 1   
@<TRIPOS>SUBSTRUCTURE
     1 1OC         1 TEMP              0 ****  ****    0 ROOT
