@<TRIPOS>MOLECULE
1OC
   61    66     1     0     0
SMALL
bcc


@<TRIPOS>ATOM
      1 C1          -7.9990     2.0830     1.3200 ca         1 1OC      -0.144000
      2 C2          -9.0900     1.9750     0.4690 ca         1 1OC      -0.102000
      3 C3          -9.1270     0.9700    -0.4870 ca         1 1OC      -0.170000
      4 C4          -8.0680     0.0870    -0.5670 ca         1 1OC       0.141900
      5 C5          -6.9630     0.1520     0.2730 cp         1 1OC      -0.061000
      6 C6          -6.9520     1.1790     1.2200 ca         1 1OC      -0.100000
      7 C7          -5.8350    -0.7940     0.1650 cp         1 1OC      -0.196300
      8 C8          -4.5300    -0.3260     0.0970 ca         1 1OC      -0.028000
      9 C9          -3.5020    -1.2580     0.0340 ca         1 1OC      -0.239100
     10 C10         -2.0740    -1.2120    -0.0480 cc         1 1OC       0.025400
     11 C11         -1.6400    -2.5120    -0.0820 cd         1 1OC      -0.123100
     12 N12         -2.7280    -3.3530    -0.0280 na         1 1OC      -0.271100
     13 C14         -3.8640    -2.6240     0.0430 ca         1 1OC       0.451800
     14 N15         -5.1000    -3.0950     0.1130 nb         1 1OC      -0.684000
     15 C16         -6.0550    -2.1850     0.1720 ca         1 1OC       0.453200
     16 N17         -1.3570    -0.0220    -0.0840 ns         1 1OC      -0.461100
     17 C18         -0.0010     0.0850    -0.0900 c          1 1OC       0.732300
     18 O19          0.7200    -0.9020    -0.0590 o          1 1OC      -0.593100
     19 C20          0.5220     1.4450    -0.1390 cc         1 1OC      -0.409800
     20 C21         -0.1560     2.6820    -0.1840 cc         1 1OC       0.426500
     21 N22          0.6500     3.7150    -0.2360 nd         1 1OC      -0.580100
     22 N23          1.8830     3.1720    -0.2260 na         1 1OC       0.023200
     23 C24          1.8770     1.8000    -0.1670 cd         1 1OC       0.505500
     24 N25          3.0030     1.0900    -0.1500 nd         1 1OC      -0.740000
     25 C26          4.1480     1.7490    -0.1900 cc         1 1OC       0.726200
     26 C27          4.2040     3.1830    -0.2660 cc         1 1OC      -0.350300
     27 C28          3.0440     3.8690    -0.2800 cd         1 1OC       0.030700
     28 N29          5.2910     1.0580    -0.1470 nu         1 1OC      -0.861900
     29 C30          5.3440    -0.3860    -0.0760 c3         1 1OC       0.229800
     30 C31          6.7040    -0.9000     0.3850 c6         1 1OC      -0.109700
     31 C32          6.5950    -2.3850     0.7510 c6         1 1OC      -0.112400
     32 C33          7.9460    -2.9530     1.1740 c6         1 1OC       0.147800
     33 N34          8.9970    -2.7550     0.1900 n7         1 1OC      -0.790200
     34 C35          9.1170    -1.3620    -0.1910 c6         1 1OC       0.129800
     35 C36          7.7990    -0.7590    -0.6600 c6         1 1OC       0.131600
     36 F37          8.0220     0.5990    -0.9500 f          1 1OC      -0.258300
     37 F38         -8.1040    -0.8640    -1.5160 f          1 1OC      -0.140900
     38 H1          -7.9650     2.8640     2.0670 ha         1 1OC       0.136000
     39 H2          -9.9150     2.6710     0.5440 ha         1 1OC       0.135000
     40 H3          -9.9630     0.8740    -1.1680 ha         1 1OC       0.150000
     41 H4          -6.1100     1.2550     1.8960 ha         1 1OC       0.136000
     42 H5          -4.3370     0.7410     0.0830 ha         1 1OC       0.132000
     43 H6          -0.6470    -2.9150    -0.1410 h4         1 1OC       0.195000
     44 H7          -2.6760    -4.3580    -0.0330 hn         1 1OC       0.312700
     45 H8          -7.0670    -2.5660     0.2530 h4         1 1OC       0.025100
     46 H9          -1.9100     0.8190    -0.1150 hn         1 1OC       0.317500
     47 H10         -1.2230     2.8580    -0.1790 h4         1 1OC       0.041800
     48 H11          5.1470     3.7080    -0.3060 ha         1 1OC       0.161000
     49 H12          2.9690     4.9450    -0.3310 h4         1 1OC       0.181000
     50 H13          6.1530     1.5620    -0.2740 hn         1 1OC       0.455800
     51 H14          4.5820    -0.7210     0.6290 h1         1 1OC       0.069200
     52 H15          5.0870    -0.8350    -1.0440 h1         1 1OC       0.069200
     53 H16          7.0060    -0.3480     1.2850 hc         1 1OC       0.071700
     54 H17          5.8690    -2.5060     1.5590 hc         1 1OC       0.056200
     55 H18          6.2100    -2.9510    -0.1050 hc         1 1OC       0.056200
     56 H19          8.2590    -2.4730     2.1070 h1         1 1OC       0.059700
     57 H20          7.8570    -4.0200     1.3830 h1         1 1OC       0.059700
     58 H21          8.8010    -3.3160    -0.6310 hn         1 1OC       0.355800
     59 H23          9.4770    -0.7910     0.6720 h1         1 1OC       0.069200
     60 H24          9.8670    -1.2660    -0.9780 h1         1 1OC       0.069200
     61 H25          7.4780    -1.2330    -1.5950 h1         1 1OC       0.057700
@<TRIPOS>BOND
     1     1     2 ar  
     2     1     6 ar  
     3     1    38 1   
     4     2     3 ar  
     5     2    39 1   
     6     3     4 ar  
     7     3    40 1   
     8     4     5 ar  
     9     4    37 1   
    10     5     6 ar  
    11     5     7 1   
    12     6    41 1   
    13     7     8 ar  
    14     7    15 ar  
    15     8     9 ar  
    16     8    42 1   
    17     9    10 1   
    18     9    13 ar  
    19    10    11 2   
    20    10    16 1   
    21    11    12 1   
    22    11    43 1   
    23    12    13 1   
    24    12    44 1   
    25    13    14 ar  
    26    14    15 ar  
    27    15    45 1   
    28    16    17 1   
    29    16    46 1   
    30    17    18 2   
    31    17    19 1   
    32    19    20 1   
    33    19    23 2   
    34    20    21 2   
    35    20    47 1   
    36    21    22 1   
    37    22    23 1   
    38    22    27 1   
    39    23    24 1   
    40    24    25 2   
    41    25    26 1   
    42    25    28 1   
    43    26    27 2   
    44    26    48 1   
    45    27    49 1   
    46    28    29 1   
    47    28    50 1   
    48    29    30 1   
    49    29    51 1   
    50    29    52 1   
    51    30    31 1   
    52    30    35 1   
    53    30    53 1   
    54    31    32 1   
    55    31    54 1   
    56    31    55 1   
    57    32    33 1   
    58    32    56 1   
    59    32    57 1   
    60    33    34 1   
    61    33    58 1   
    62    34    35 1   
    63    34    59 1   
    64    34    60 1   
    65    35    36 1   
    66    35    61 1   
@<TRIPOS>SUBSTRUCTURE
     1 1OC         1 TEMP              0 ****  ****    0 ROOT
