@<TRIPOS>MOLECULE
1OD
   79    82     1     0     0
SMALL
No Charge or Current Charge


@<TRIPOS>ATOM
      1 O34         -4.0970     2.8230     1.2610 o          1 1OD      -0.652100
      2 C33         -4.4680     1.7150     0.8910 c          1 1OD       0.627700
      3 C35         -5.3390     1.5400    -0.3370 ca         1 1OD      -0.234600
      4 C40         -5.7640     0.2570    -0.7700 ca         1 1OD      -0.082000
      5 C39         -6.5710     0.1130    -1.9120 ca         1 1OD      -0.125500
      6 C38         -6.9720     1.2410    -2.6450 ca         1 1OD      -0.094000
      7 C37         -6.5620     2.5160    -2.2340 ca         1 1OD       0.096100
      8 O41         -6.9460     3.6200    -2.9410 oh         1 1OD      -0.533600
      9 C36         -5.7510     2.6680    -1.0880 ca         1 1OD       0.135600
     10 O42         -5.3660     3.9260    -0.7110 oh         1 1OD      -0.581600
     11 N32         -4.1140     0.5740     1.5740 ns         1 1OD      -0.476400
     12 C31         -3.2520     0.5410     2.7570 c3         1 1OD       0.105500
     13 C30         -1.7610     0.6520     2.3880 c3         1 1OD      -0.131400
     14 C29         -0.8370     0.5880     3.6210 c3         1 1OD       0.106500
     15 N14          0.6040     0.6840     3.2790 n          1 1OD      -0.400800
     16 C12          1.2090     1.9760     3.1780 c          1 1OD       0.602100
     17 O13          0.5400     2.9940     3.3240 o          1 1OD      -0.581100
     18 C10          2.7560     1.9570     2.8350 c5         1 1OD       0.025500
     19 C9           3.3120     3.4100     2.7780 c5         1 1OD       0.144300
     20 C43          4.7840     3.5380     3.2310 c3         1 1OD      -0.111100
     21 O8           3.2340     3.7280     1.3780 os         1 1OD      -0.422600
     22 N11          3.0810     1.4520     1.4560 n2         1 1OD      -0.737900
     23 C7           3.2460     2.5160     0.7290 ce         1 1OD       0.707200
     24 C1           3.5190     2.4720    -0.7410 ca         1 1OD      -0.220900
     25 C6           3.6680     1.2470    -1.4360 ca         1 1OD       0.128100
     26 O44          3.5720     0.0540    -0.7710 oh         1 1OD      -0.576100
     27 C5           3.9230     1.2390    -2.8240 ca         1 1OD       0.093100
     28 O45          4.0690     0.0470    -3.4760 oh         1 1OD      -0.534100
     29 C4           4.0280     2.4440    -3.5330 ca         1 1OD      -0.091000
     30 C3           3.8790     3.6640    -2.8540 ca         1 1OD      -0.130000
     31 C2           3.6270     3.6790    -1.4710 ca         1 1OD      -0.060000
     32 C15          1.3550    -0.6030     3.2260 c3         1 1OD       0.106500
     33 C16          1.1800    -1.3570     1.8930 c3         1 1OD      -0.131400
     34 C17          2.1700    -2.5260     1.7350 c3         1 1OD       0.105500
     35 N18          2.0260    -3.1880     0.4380 ns         1 1OD      -0.476400
     36 C19          1.0380    -4.0910     0.1210 c          1 1OD       0.627700
     37 O20          0.2060    -4.4450     0.9480 o          1 1OD      -0.652100
     38 C21          1.0280    -4.6300    -1.2950 ca         1 1OD      -0.234600
     39 C26          0.0440    -5.5660    -1.6970 ca         1 1OD       0.135600
     40 O27         -0.9050    -5.9930    -0.8100 oh         1 1OD      -0.581600
     41 C25          0.0250    -6.0730    -3.0150 ca         1 1OD       0.096100
     42 O28         -0.9350    -6.9760    -3.3780 oh         1 1OD      -0.533600
     43 C24          0.9840    -5.6550    -3.9470 ca         1 1OD      -0.094000
     44 C23          1.9650    -4.7270    -3.5640 ca         1 1OD      -0.125500
     45 C22          1.9900    -4.2180    -2.2540 ca         1 1OD      -0.082000
     46 H1          -5.4780    -0.6450    -0.2350 ha         1 1OD       0.104000
     47 H2          -6.8880    -0.8780    -2.2300 ha         1 1OD       0.120000
     48 H3          -7.5960     1.1270    -3.5280 ha         1 1OD       0.133000
     49 H4          -6.5490     4.3930    -2.4780 ho         1 1OD       0.486500
     50 H5          -4.8080     3.7980     0.1070 ho         1 1OD       0.534500
     51 H6          -4.4660    -0.3010     1.2100 hn         1 1OD       0.323000
     52 H7          -3.5310     1.3630     3.4300 h1         1 1OD       0.056200
     53 H8          -3.4280    -0.4040     3.2890 h1         1 1OD       0.056200
     54 H9          -1.5050    -0.1520     1.6900 hc         1 1OD       0.066700
     55 H10         -1.5880     1.5980     1.8610 hc         1 1OD       0.066700
     56 H11         -1.1040     1.3930     4.3190 h1         1 1OD       0.052700
     57 H12         -1.0210    -0.3580     4.1480 h1         1 1OD       0.052700
     58 H13          3.2780     1.3880     3.6150 h1         1 1OD       0.083700
     59 H14          2.7160     4.1300     3.3570 h1         1 1OD       0.100700
     60 H15          5.4410     2.8670     2.6660 hc         1 1OD       0.051367
     61 H16          5.1470     4.5630     3.0940 hc         1 1OD       0.051367
     62 H17          4.8860     3.2890     4.2940 hc         1 1OD       0.051367
     63 H18          3.3850     0.2910     0.1800 ho         1 1OD       0.532000
     64 H19          3.9680    -0.6500    -2.7890 ho         1 1OD       0.484000
     65 H20          4.2240     2.4330    -4.6020 ha         1 1OD       0.132000
     66 H21          3.9600     4.6020    -3.4000 ha         1 1OD       0.122000
     67 H22          3.5150     4.6400    -0.9700 ha         1 1OD       0.130000
     68 H23          2.4220    -0.4530     3.4140 h1         1 1OD       0.052700
     69 H24          1.0030    -1.2510     4.0390 h1         1 1OD       0.052700
     70 H25          0.1570    -1.7420     1.8270 hc         1 1OD       0.066700
     71 H26          1.3140    -0.6580     1.0590 hc         1 1OD       0.066700
     72 H27          3.1990    -2.1500     1.8200 h1         1 1OD       0.056200
     73 H28          2.0110    -3.2600     2.5360 h1         1 1OD       0.056200
     74 H29          2.6760    -2.9480    -0.2980 hn         1 1OD       0.323000
     75 H30         -0.7050    -5.5130     0.0430 ho         1 1OD       0.534500
     76 H31         -1.4900    -7.1210    -2.5770 ho         1 1OD       0.486500
     77 H32          0.9660    -6.0470    -4.9610 ha         1 1OD       0.133000
     78 H33          2.7110    -4.4010    -4.2870 ha         1 1OD       0.120000
     79 H34          2.7690    -3.5030    -2.0040 ha         1 1OD       0.104000
@<TRIPOS>BOND
     1     1     2 2   
     2     2     3 1   
     3     2    11 1   
     4     3     4 ar  
     5     3     9 ar  
     6     4     5 ar  
     7     4    46 1   
     8     5     6 ar  
     9     5    47 1   
    10     6     7 ar  
    11     6    48 1   
    12     7     8 1   
    13     7     9 ar  
    14     8    49 1   
    15     9    10 1   
    16    10    50 1   
    17    11    12 1   
    18    11    51 1   
    19    12    13 1   
    20    12    52 1   
    21    12    53 1   
    22    13    14 1   
    23    13    54 1   
    24    13    55 1   
    25    14    15 1   
    26    14    56 1   
    27    14    57 1   
    28    15    16 1   
    29    15    32 1   
    30    16    17 2   
    31    16    18 1   
    32    18    19 1   
    33    18    22 1   
    34    18    58 1   
    35    19    20 1   
    36    19    21 1   
    37    19    59 1   
    38    20    60 1   
    39    20    61 1   
    40    20    62 1   
    41    21    23 1   
    42    22    23 2   
    43    23    24 1   
    44    24    25 ar  
    45    24    31 ar  
    46    25    26 1   
    47    25    27 ar  
    48    26    63 1   
    49    27    28 1   
    50    27    29 ar  
    51    28    64 1   
    52    29    30 ar  
    53    29    65 1   
    54    30    31 ar  
    55    30    66 1   
    56    31    67 1   
    57    32    33 1   
    58    32    68 1   
    59    32    69 1   
    60    33    34 1   
    61    33    70 1   
    62    33    71 1   
    63    34    35 1   
    64    34    72 1   
    65    34    73 1   
    66    35    36 1   
    67    35    74 1   
    68    36    37 2   
    69    36    38 1   
    70    38    39 ar  
    71    38    45 ar  
    72    39    40 1   
    73    39    41 ar  
    74    40    75 1   
    75    41    42 1   
    76    41    43 ar  
    77    42    76 1   
    78    43    44 ar  
    79    43    77 1   
    80    44    45 ar  
    81    44    78 1   
    82    45    79 1   
@<TRIPOS>SUBSTRUCTURE
     1 1OD         1 TEMP              0 ****  ****    0 ROOT
