@<TRIPOS>MOLECULE
1OD
   79    82     1     0     0
SMALL
bcc


@<TRIPOS>ATOM
      1 O34         -3.9090     2.6370     0.5390 o          1 1OD      -0.652100
      2 C33         -4.4530     1.5300     0.6970 c          1 1OD       0.694700
      3 C35         -5.4740     1.0540    -0.2690 ca         1 1OD      -0.234600
      4 C40         -6.1990    -0.1350    -0.1070 ca         1 1OD      -0.100000
      5 C39         -7.1300    -0.5210    -1.0450 ca         1 1OD      -0.143500
      6 C38         -7.3650     0.2690    -2.1700 ca         1 1OD      -0.112000
      7 C37         -6.6710     1.4480    -2.3490 ca         1 1OD       0.096100
      8 O41         -6.9100     2.2030    -3.4390 oh         1 1OD      -0.494600
      9 C36         -5.7210     1.8530    -1.3940 ca         1 1OD       0.135600
     10 O42         -5.0940     3.0090    -1.6330 oh         1 1OD      -0.542600
     11 N32         -4.1430     0.7500     1.7320 ns         1 1OD      -0.543400
     12 C31         -3.1570     1.1030     2.7320 c3         1 1OD       0.105500
     13 C30         -1.7330     0.7490     2.3200 c3         1 1OD      -0.131400
     14 C29         -0.7670     0.9990     3.4730 c3         1 1OD       0.106500
     15 N14          0.6260     0.7540     3.1260 n          1 1OD      -0.467800
     16 C12          1.3460     1.7760     2.6270 c          1 1OD       0.669100
     17 O13          0.8850     2.8980     2.4690 o          1 1OD      -0.581100
     18 C10          2.8050     1.5400     2.2280 c5         1 1OD       0.025500
     19 C9           3.7350     2.6540     2.7640 c5         1 1OD       0.121100
     20 C43          5.0480     2.1290     3.2970 c3         1 1OD      -0.111100
     21 O8           3.9750     3.4630     1.5890 os         1 1OD      -0.399400
     22 N11          2.8860     1.6920     0.7860 n2         1 1OD      -0.737900
     23 C7           3.4990     2.7890     0.5500 ce         1 1OD       0.707200
     24 C1           3.7000     3.3260    -0.7870 ca         1 1OD      -0.220900
     25 C6           3.1470     2.6300    -1.8690 ca         1 1OD       0.128100
     26 O44          2.4590     1.4900    -1.7490 oh         1 1OD      -0.537100
     27 C5           3.3100     3.1360    -3.1690 ca         1 1OD       0.093100
     28 O45          2.7870     2.4900    -4.2310 oh         1 1OD      -0.495100
     29 C4           4.0110     4.3110    -3.3640 ca         1 1OD      -0.109000
     30 C3           4.5590     5.0000    -2.2830 ca         1 1OD      -0.148000
     31 C2           4.4070     4.5160    -1.0020 ca         1 1OD      -0.078000
     32 C15          1.1130    -0.6170     3.2160 c3         1 1OD       0.106500
     33 C16          1.1920    -1.3430     1.8780 c3         1 1OD      -0.131400
     34 C17          1.7360    -2.7550     2.0700 c3         1 1OD       0.105500
     35 N18          1.9000    -3.4720     0.8230 ns         1 1OD      -0.543400
     36 C19          0.9020    -4.1040     0.2070 c          1 1OD       0.694700
     37 O20         -0.2410    -4.1260     0.6960 o          1 1OD      -0.652100
     38 C21          1.1780    -4.7920    -1.0790 ca         1 1OD      -0.234600
     39 C26          0.0950    -5.3860    -1.7390 ca         1 1OD       0.135600
     40 O27         -1.1560    -5.3770    -1.2680 oh         1 1OD      -0.542600
     41 C25          0.2930    -6.0370    -2.9700 ca         1 1OD       0.096100
     42 O28         -0.7430    -6.6070    -3.6160 oh         1 1OD      -0.494600
     43 C24          1.5580    -6.0980    -3.5180 ca         1 1OD      -0.112000
     44 C23          2.6400    -5.5190    -2.8560 ca         1 1OD      -0.143500
     45 C22          2.4550    -4.8750    -1.6530 ca         1 1OD      -0.100000
     46 H1          -6.0530    -0.7700     0.7570 ha         1 1OD       0.122000
     47 H2          -7.6840    -1.4400    -0.9130 ha         1 1OD       0.138000
     48 H3          -8.0950    -0.0340    -2.9100 ha         1 1OD       0.151000
     49 H4          -6.3530     2.9910    -3.4290 ho         1 1OD       0.447500
     50 H5          -4.4890     3.1570    -0.8560 ho         1 1OD       0.495500
     51 H6          -4.5370    -0.1720     1.7930 hn         1 1OD       0.323000
     52 H7          -3.2360     2.1670     2.9540 h1         1 1OD       0.056200
     53 H8          -3.4280     0.5660     3.6420 h1         1 1OD       0.056200
     54 H9          -1.6970    -0.3010     2.0190 hc         1 1OD       0.066700
     55 H10         -1.4380     1.3450     1.4530 hc         1 1OD       0.066700
     56 H11         -0.8650     2.0260     3.8220 h1         1 1OD       0.052700
     57 H12         -1.0200     0.3540     4.3160 h1         1 1OD       0.052700
     58 H13          3.1790     0.5590     2.5200 h1         1 1OD       0.083700
     59 H14          3.2480     3.2930     3.4990 h1         1 1OD       0.100700
     60 H15          5.5480     1.4850     2.5720 hc         1 1OD       0.051367
     61 H16          5.7200     2.9460     3.5600 hc         1 1OD       0.051367
     62 H17          4.8640     1.5450     4.1990 hc         1 1OD       0.051367
     63 H18          2.4240     1.2460    -0.7860 ho         1 1OD       0.493000
     64 H19          2.3460     1.6810    -3.9460 ho         1 1OD       0.445000
     65 H20          4.1310     4.6910    -4.3710 ha         1 1OD       0.150000
     66 H21          5.1040     5.9170    -2.4570 ha         1 1OD       0.140000
     67 H22          4.8330     5.0510    -0.1650 ha         1 1OD       0.148000
     68 H23          2.0810    -0.6390     3.7200 h1         1 1OD       0.052700
     69 H24          0.4310    -1.1510     3.8780 h1         1 1OD       0.052700
     70 H25          0.2020    -1.3900     1.4220 hc         1 1OD       0.066700
     71 H26          1.8380    -0.7990     1.1840 hc         1 1OD       0.066700
     72 H27          2.7160    -2.7160     2.5460 h1         1 1OD       0.056200
     73 H28          1.0830    -3.3270     2.7310 h1         1 1OD       0.056200
     74 H29          2.8000    -3.4100     0.3810 hn         1 1OD       0.323000
     75 H30         -1.1160    -4.9030    -0.3940 ho         1 1OD       0.495500
     76 H31         -1.5540    -6.4990    -3.1050 ho         1 1OD       0.447500
     77 H32          1.7020    -6.6050    -4.4640 ha         1 1OD       0.151000
     78 H33          3.6270    -5.5810    -3.2910 ha         1 1OD       0.138000
     79 H34          3.3190    -4.4470    -1.1630 ha         1 1OD       0.122000
@<TRIPOS>BOND
     1     1     2 2   
     2     2     3 1   
     3     2    11 1   
     4     3     4 ar  
     5     3     9 ar  
     6     4     5 ar  
     7     4    46 1   
     8     5     6 ar  
     9     5    47 1   
    10     6     7 ar  
    11     6    48 1   
    12     7     8 1   
    13     7     9 ar  
    14     8    49 1   
    15     9    10 1   
    16    10    50 1   
    17    11    12 1   
    18    11    51 1   
    19    12    13 1   
    20    12    52 1   
    21    12    53 1   
    22    13    14 1   
    23    13    54 1   
    24    13    55 1   
    25    14    15 1   
    26    14    56 1   
    27    14    57 1   
    28    15    16 1   
    29    15    32 1   
    30    16    17 2   
    31    16    18 1   
    32    18    19 1   
    33    18    22 1   
    34    18    58 1   
    35    19    20 1   
    36    19    21 1   
    37    19    59 1   
    38    20    60 1   
    39    20    61 1   
    40    20    62 1   
    41    21    23 1   
    42    22    23 2   
    43    23    24 1   
    44    24    25 ar  
    45    24    31 ar  
    46    25    26 1   
    47    25    27 ar  
    48    26    63 1   
    49    27    28 1   
    50    27    29 ar  
    51    28    64 1   
    52    29    30 ar  
    53    29    65 1   
    54    30    31 ar  
    55    30    66 1   
    56    31    67 1   
    57    32    33 1   
    58    32    68 1   
    59    32    69 1   
    60    33    34 1   
    61    33    70 1   
    62    33    71 1   
    63    34    35 1   
    64    34    72 1   
    65    34    73 1   
    66    35    36 1   
    67    35    74 1   
    68    36    37 2   
    69    36    38 1   
    70    38    39 ar  
    71    38    45 ar  
    72    39    40 1   
    73    39    41 ar  
    74    40    75 1   
    75    41    42 1   
    76    41    43 ar  
    77    42    76 1   
    78    43    44 ar  
    79    43    77 1   
    80    44    45 ar  
    81    44    78 1   
    82    45    79 1   
@<TRIPOS>SUBSTRUCTURE
     1 1OD         1 TEMP              0 ****  ****    0 ROOT
