@<TRIPOS>MOLECULE
1OE
   41    44     1     0     0
SMALL
No Charge or Current Charge


@<TRIPOS>ATOM
      1 N           10.8630    20.8930    58.6690 na         1 1OE       0.016300
      2 CA          11.1740    22.1530    59.3730 c3         1 1OE      -0.105400
      3 C           10.3130    22.3640    60.6240 c          1 1OE       0.721000
      4 O           10.8730    22.3810    61.7110 o          1 1OE      -0.707000
      5 OXT          9.1070    22.5140    60.4840 o          1 1OE      -0.707000
      6 CAE          4.4400    19.6650    49.7660 ca         1 1OE      -0.111000
      7 CAF          5.4460    19.0540    50.5210 ca         1 1OE      -0.120000
      8 CAG         12.0200    16.9820    59.5370 ca         1 1OE      -0.155000
      9 CAH         12.5030    17.9920    60.4010 ca         1 1OE      -0.118000
     10 CAI          4.0860    20.9920    50.0380 ca         1 1OE      -0.116000
     11 CAJ          6.1030    19.7720    51.5330 ca         1 1OE      -0.077000
     12 CAK         11.1900    17.3160    58.4470 ca         1 1OE      -0.069000
     13 CAL         12.1600    19.3430    60.1800 ca         1 1OE      -0.101000
     14 CAM          6.5790    23.1660    53.1940 cc         1 1OE      -0.312000
     15 CAN         10.0640    19.2890    57.2560 cc         1 1OE      -0.250200
     16 CAT          9.3320    21.6940    56.6940 c          1 1OE       0.669300
     17 CAU          4.7370    21.7240    51.0500 ca         1 1OE       0.131000
     18 CAV          6.5410    21.8150    52.9090 cd         1 1OE       0.348500
     19 CAW          7.8630    21.7990    54.7120 cc         1 1OE       0.564300
     20 CAX          5.7870    21.1300    51.8130 ca         1 1OE      -0.082500
     21 CAY         10.0610    20.6680    57.5120 cd         1 1OE      -0.082300
     22 CAZ         10.8710    18.6670    58.2590 ca         1 1OE      -0.106800
     23 CBA         11.3320    19.6520    59.0860 ca         1 1OE      -0.043200
     24 NAP          7.2850    21.0430    53.8000 nd         1 1OE      -0.724000
     25 NAQ          8.6270    21.1600    55.6470 ns         1 1OE      -0.454400
     26 OAB          9.3570    22.8940    56.9220 o          1 1OE      -0.571100
     27 SAR          7.5610    23.5140    54.5860 ss         1 1OE       0.090600
     28 H1          12.2300    22.1430    59.6690 h1         1 1OE       0.054700
     29 H2          11.0310    23.0080    58.7060 h1         1 1OE       0.054700
     30 H4           3.9270    19.1100    48.9830 ha         1 1OE       0.107000
     31 H5           5.7210    18.0200    50.3230 ha         1 1OE       0.111000
     32 H6          12.2880    15.9430    59.7130 ha         1 1OE       0.092000
     33 H7          13.1410    17.7270    61.2400 ha         1 1OE       0.094000
     34 H8           3.2870    21.4590    49.4680 ha         1 1OE       0.120000
     35 H9           6.8840    19.2590    52.0880 ha         1 1OE       0.132000
     36 H10         10.8100    16.5510    57.7740 ha         1 1OE       0.098000
     37 H11         12.5310    20.1190    60.8460 ha         1 1OE       0.117000
     38 H12          6.1410    24.0020    52.6750 h4         1 1OE       0.154000
     39 H13          9.5540    18.7700    56.4480 ha         1 1OE       0.190000
     40 H14          8.6800    20.1600    55.5570 hn         1 1OE       0.349500
     41 ClA          4.0990    23.3450    51.3240 cl         1 1OE      -0.202000
@<TRIPOS>BOND
     1     1     2 1   
     2     1    21 1   
     3     1    23 1   
     4     2     3 1   
     5     2    28 1   
     6     2    29 1   
     7     3     4 1   
     8     3     5 1   
     9     6     7 ar  
    10     6    10 ar  
    11     6    30 1   
    12     7    11 ar  
    13     7    31 1   
    14     8     9 ar  
    15     8    12 ar  
    16     8    32 1   
    17     9    13 ar  
    18     9    33 1   
    19    10    17 ar  
    20    10    34 1   
    21    11    20 ar  
    22    11    35 1   
    23    12    22 ar  
    24    12    36 1   
    25    13    23 ar  
    26    13    37 1   
    27    14    18 2   
    28    14    27 1   
    29    14    38 1   
    30    15    21 2   
    31    15    22 1   
    32    15    39 1   
    33    16    21 1   
    34    16    25 1   
    35    16    26 2   
    36    17    20 ar  
    37    17    41 1   
    38    18    20 1   
    39    18    24 1   
    40    19    24 2   
    41    19    25 1   
    42    19    27 1   
    43    22    23 ar  
    44    25    40 1   
@<TRIPOS>SUBSTRUCTURE
     1 1OE         1 TEMP              0 ****  ****    0 ROOT
