@<TRIPOS>MOLECULE
1OE
   41    44     1     0     0
SMALL
bcc


@<TRIPOS>ATOM
      1 N           10.8810    20.7540    58.5700 na         1 1OE       0.045600
      2 CA          10.6030    22.0130    59.2250 c3         1 1OE      -0.134700
      3 C            9.0940    22.3210    59.4070 c          1 1OE       0.931600
      4 O            8.2790    21.5140    58.9320 o          1 1OE      -0.812300
      5 OXT          8.8690    23.3750    60.0250 o          1 1OE      -0.812300
      6 CAE          4.0120    20.0960    50.0770 ca         1 1OE      -0.129000
      7 CAF          5.1810    19.4290    50.4200 ca         1 1OE      -0.138000
      8 CAG         12.5020    17.2110    59.8910 ca         1 1OE      -0.173000
      9 CAH         12.5790    18.3120    60.7640 ca         1 1OE      -0.136000
     10 CAI          3.6970    21.2940    50.6950 ca         1 1OE      -0.134000
     11 CAJ          6.0270    19.9710    51.3730 ca         1 1OE      -0.095000
     12 CAK         11.9030    17.3300    58.6570 ca         1 1OE      -0.087000
     13 CAL         12.0660    19.5450    60.4200 ca         1 1OE      -0.119000
     14 CAM          7.1510    22.9800    53.1040 cc         1 1OE      -0.250400
     15 CAN         10.6810    19.0340    57.1290 cc         1 1OE      -0.200200
     16 CAT          9.7390    21.2930    56.4310 c          1 1OE       0.736300
     17 CAU          4.5550    21.8280    51.6470 ca         1 1OE       0.039400
     18 CAV          6.7010    21.7030    52.9920 cd         1 1OE       0.413800
     19 CAW          8.1300    21.4040    54.6330 cc         1 1OE       0.564300
     20 CAX          5.7430    21.1860    52.0020 ca         1 1OE      -0.082500
     21 CAY         10.3950    20.3570    57.3510 cd         1 1OE      -0.082300
     22 CAZ         11.3660    18.5700    58.2830 ca         1 1OE      -0.106800
     23 CBA         11.4580    19.6690    59.1670 ca         1 1OE      -0.043200
     24 NAP          7.2720    20.8140    53.8670 nd         1 1OE      -0.724000
     25 NAQ          8.8120    20.7240    55.6090 ns         1 1OE      -0.521400
     26 OAB         10.0080    22.4790    56.3510 o          1 1OE      -0.571100
     27 SAR          8.3260    23.1000    54.3520 ss         1 1OE      -0.054300
     28 H1          11.0750    21.9870    60.2060 h1         1 1OE       0.054700
     29 H2          11.0750    22.8310    58.6800 h1         1 1OE       0.054700
     30 H4           3.3420    19.6850    49.3340 ha         1 1OE       0.125000
     31 H5           5.4350    18.4910    49.9460 ha         1 1OE       0.129000
     32 H6          12.9180    16.2610    60.2000 ha         1 1OE       0.110000
     33 H7          13.0550    18.1910    61.7280 ha         1 1OE       0.112000
     34 H8           2.7820    21.8140    50.4440 ha         1 1OE       0.138000
     35 H9           6.9390    19.4530    51.6370 ha         1 1OE       0.150000
     36 H10         11.8410    16.4820    57.9860 ha         1 1OE       0.116000
     37 H11         12.1420    20.3790    61.1050 ha         1 1OE       0.135000
     38 H12          6.8830    23.8420    52.5150 h4         1 1OE       0.172000
     39 H13         10.4630    18.4690    56.2360 ha         1 1OE       0.140000
     40 H14          8.5490    19.7560    55.7320 hn         1 1OE       0.349500
     41 CLA          4.0670    23.3050    52.4130 cl         1 1OE      -0.110400
@<TRIPOS>BOND
     1     1     2 1   
     2     1    21 1   
     3     1    23 1   
     4     2     3 1   
     5     2    28 1   
     6     2    29 1   
     7     3     4 1   
     8     3     5 1   
     9     6     7 ar  
    10     6    10 ar  
    11     6    30 1   
    12     7    11 ar  
    13     7    31 1   
    14     8     9 ar  
    15     8    12 ar  
    16     8    32 1   
    17     9    13 ar  
    18     9    33 1   
    19    10    17 ar  
    20    10    34 1   
    21    11    20 ar  
    22    11    35 1   
    23    12    22 ar  
    24    12    36 1   
    25    13    23 ar  
    26    13    37 1   
    27    14    18 2   
    28    14    27 1   
    29    14    38 1   
    30    15    21 2   
    31    15    22 1   
    32    15    39 1   
    33    16    21 1   
    34    16    25 1   
    35    16    26 2   
    36    17    20 ar  
    37    17    41 1   
    38    18    20 1   
    39    18    24 1   
    40    19    24 2   
    41    19    25 1   
    42    19    27 1   
    43    22    23 ar  
    44    25    40 1   
@<TRIPOS>SUBSTRUCTURE
     1 1OE         1 TEMP              0 ****  ****    0 ROOT
