@<TRIPOS>MOLECULE
1OF
   72    77     1     0     0
SMALL
abcg2


@<TRIPOS>ATOM
      1 C8           8.0730    28.8980   -11.7000 c5         1 1OF       0.149300
      2 C5           9.4280    27.9210    -8.9280 c3         1 1OF       0.216600
      3 C6           9.7100    28.9770    -9.9800 c5         1 1OF       0.117300
      4 N6          13.3810    22.3070   -11.9220 ns         1 1OF      -0.373500
      5 N1           8.8830    24.9840   -13.3020 nc         1 1OF      -0.599100
      6 C2          12.5060    26.1830    -4.8950 c5         1 1OF       0.103300
      7 N3          11.5940    25.4550   -15.7480 nb         1 1OF      -0.311000
      8 C4          10.0020    26.4250    -5.1690 c3         1 1OF       0.219600
      9 N            9.3800    27.1170   -12.8650 na         1 1OF      -0.277300
     10 C           12.3020    24.3390    -6.3410 c5         1 1OF       0.280300
     11 O            8.7800    25.7320    -5.0660 os         1 1OF      -0.568400
     12 C1          12.8450    25.7700    -6.3280 c5         1 1OF       0.127300
     13 C10          8.6130    26.0190   -12.5650 cd         1 1OF       0.471700
     14 C11          9.8960    25.4020   -14.1270 ca         1 1OF      -0.094600
     15 C12         10.2230    26.7220   -13.8680 ca         1 1OF       0.120500
     16 C13         11.7960    26.7240   -15.4010 ca         1 1OF       0.152900
     17 C14         10.6440    24.7540   -15.1230 ca         1 1OF       0.415900
     18 C15         10.6860    24.1480    -8.2030 cc         1 1OF      -0.030000
     19 C16         10.3790    23.8560    -9.4960 cd         1 1OF      -0.101000
     20 C17         11.3610    23.3240   -10.3520 cd         1 1OF       0.118000
     21 C18         11.1230    23.0120   -11.7120 cc         1 1OF      -0.359600
     22 C19         12.1500    22.5210   -12.4470 cc         1 1OF       0.264800
     23 C20         13.7380    22.5540   -10.6180 c          1 1OF       0.582600
     24 C21         12.6440    23.1030    -9.8090 cd         1 1OF      -0.241600
     25 C22         12.8890    23.4120    -8.4880 cc         1 1OF       0.000000
     26 C3          11.1350    25.5210    -4.7270 c5         1 1OF       0.118300
     27 C7           8.4920    29.7480   -10.5000 c5         1 1OF       0.102300
     28 C9           9.4270    28.4100   -12.2210 c5         1 1OF       0.321300
     29 N2          11.1670    27.4330   -14.4790 nb         1 1OF      -0.192000
     30 N4          10.4630    23.4650   -15.4420 nv         1 1OF      -1.084900
     31 N5          11.9330    23.9240    -7.7180 na         1 1OF       0.063000
     32 O1           7.8590    25.8180    -7.3510 os         1 1OF      -0.748800
     33 O10         11.1950    24.3210    -5.5230 os         1 1OF      -0.407000
     34 O12         14.1850    25.7610    -6.6910 oh         1 1OF      -0.700000
     35 O2           6.9890    25.0600    -9.6110 o          1 1OF      -0.829500
     36 O3           8.7070    26.8440    -9.4770 os         1 1OF      -0.629400
     37 O4          10.3070    28.3840   -11.1330 os         1 1OF      -0.452000
     38 O5           7.4010    29.5550   -12.7300 oh         1 1OF      -0.704000
     39 O6           8.8470    31.0210   -10.9780 oh         1 1OF      -0.714000
     40 O7           6.3160    27.4040    -8.6780 o          1 1OF      -0.829500
     41 O8           7.5460    27.8590    -5.7820 o          1 1OF      -0.821000
     42 O9           6.2810    25.6060    -5.3560 o          1 1OF      -0.821000
     43 P            7.4690    26.3670    -5.8400 p5         1 1OF       1.453800
     44 P1           7.3060    26.2930    -8.8220 p5         1 1OF       1.444800
     45 H6           7.4830    28.0630   -11.3110 h1         1 1OF       0.086700
     46 H52         10.3820    27.5410    -8.5430 h1         1 1OF       0.032700
     47 H51          8.9150    28.3950    -8.0850 h1         1 1OF       0.032700
     48 H4          10.4280    29.6780    -9.5370 h1         1 1OF       0.048700
     49 HN6         14.1020    21.9360   -12.5280 hn         1 1OF       0.336500
     50 H2          12.4390    27.2740    -4.7900 h1         1 1OF       0.069700
     51 H42         10.1840    26.7810    -6.1910 h1         1 1OF       0.021700
     52 H41         10.0120    27.3090    -4.5210 h1         1 1OF       0.021700
     53 H           13.0660    23.6230    -6.0160 h2         1 1OF       0.102700
     54 H1          12.2440    26.3840    -7.0120 h1         1 1OF       0.072700
     55 H10          7.8720    26.0240   -11.7830 h5         1 1OF       0.120800
     56 H13         12.5800    27.2380   -15.9470 h5         1 1OF       0.036100
     57 H15          9.9580    24.5580    -7.5200 h4         1 1OF       0.245000
     58 H16          9.3720    24.0390    -9.8480 ha         1 1OF       0.231000
     59 H18         10.1560    23.1790   -12.1590 ha         1 1OF       0.258000
     60 H19         12.0410    22.2780   -13.4940 h4         1 1OF       0.039800
     61 H22         13.8570    23.2460    -8.0370 h4         1 1OF       0.183000
     62 H3          10.9680    25.2120    -3.6910 h1         1 1OF       0.097700
     63 H5           7.7000    29.8070    -9.7430 h1         1 1OF       0.105700
     64 H7           9.7940    29.1050   -12.9820 h2         1 1OF       0.103700
     65 HN41        10.9280    23.0900   -16.2510 hn         1 1OF       0.492000
     66 HN42         9.6560    22.9700   -15.1030 hn         1 1OF       0.492000
     67 HO12        14.4350    26.6350    -7.0060 ho         1 1OF       0.525000
     68 HO5          6.4970    29.7260   -12.4470 ho         1 1OF       0.520000
     69 HO6          9.1370    31.5550   -10.2320 ho         1 1OF       0.497000
     70 O11         13.4800    25.6340    -4.0520 oh         1 1OF      -0.708000
     71 HO11        13.2620    25.8600    -3.1410 ho         1 1OF       0.514000
     72 O13         14.8590    22.3350   -10.2030 o          1 1OF      -0.537000
@<TRIPOS>BOND
     1     1    27 1   
     2     1    28 1   
     3     1    38 1   
     4     1    45 1   
     5     2     3 1   
     6     2    36 1   
     7     2    46 1   
     8     2    47 1   
     9     3    27 1   
    10     3    37 1   
    11     3    48 1   
    12     4    22 2   
    13     4    23 1   
    14     4    49 1   
    15     5    13 2   
    16     5    14 1   
    17     6    12 1   
    18     6    26 1   
    19     6    50 1   
    20     6    70 1   
    21     7    16 ar  
    22     7    17 ar  
    23     8    11 1   
    24     8    26 1   
    25     8    51 1   
    26     8    52 1   
    27     9    13 1   
    28     9    15 1   
    29     9    28 1   
    30    10    12 1   
    31    10    31 1   
    32    10    33 1   
    33    10    53 1   
    34    11    43 1   
    35    12    34 1   
    36    12    54 1   
    37    13    55 1   
    38    14    15 ar  
    39    14    17 ar  
    40    15    29 ar  
    41    16    29 ar  
    42    16    56 1   
    43    17    30 1   
    44    18    19 2   
    45    18    31 1   
    46    18    57 1   
    47    19    20 1   
    48    19    58 1   
    49    20    21 2   
    50    20    24 1   
    51    21    22 1   
    52    21    59 1   
    53    22    60 1   
    54    23    24 1   
    55    23    72 2   
    56    24    25 2   
    57    25    31 1   
    58    25    61 1   
    59    26    33 1   
    60    26    62 1   
    61    27    39 1   
    62    27    63 1   
    63    28    37 1   
    64    28    64 1   
    65    30    65 1   
    66    30    66 1   
    67    32    43 1   
    68    32    44 1   
    69    34    67 1   
    70    35    44 1   
    71    36    44 1   
    72    38    68 1   
    73    39    69 1   
    74    40    44 1   
    75    41    43 1   
    76    42    43 1   
    77    70    71 1   
@<TRIPOS>SUBSTRUCTURE
     1 1OF         1 TEMP              0 ****  ****    0 ROOT
