@<TRIPOS>MOLECULE
1OF
   72    77     1     0     0
SMALL
No Charge or Current Charge


@<TRIPOS>ATOM
      1 C8           7.7700    28.1980   -11.9620 c5         1 1OF       0.149300
      2 C5           9.5020    28.7870    -9.2550 c3         1 1OF       0.216600
      3 C6           9.5120    29.3110   -10.7250 c5         1 1OF       0.117300
      4 N6          13.1720    23.4500   -12.5650 ns         1 1OF      -0.373500
      5 N1           9.4630    24.1000   -12.2250 nc         1 1OF      -0.599100
      6 C2          12.2220    24.7390    -4.2780 c5         1 1OF       0.103300
      7 N3          10.6590    23.9120   -15.7480 nb         1 1OF      -0.311000
      8 C4           9.9330    25.9830    -4.4850 c3         1 1OF       0.219600
      9 N            9.4230    26.3630   -12.6950 na         1 1OF      -0.277300
     10 C           12.0670    24.3370    -6.6080 c5         1 1OF       0.280300
     11 O            8.5650    25.7650    -4.8460 os         1 1OF      -0.568400
     12 C1          12.8390    25.2570    -5.6060 c5         1 1OF       0.127300
     13 C10          9.2170    25.3390   -11.7510 cd         1 1OF       0.471700
     14 C11          9.8710    24.3660   -13.5270 ca         1 1OF      -0.094600
     15 C12          9.8540    25.7080   -13.8190 ca         1 1OF       0.120500
     16 C13         10.6080    25.2520   -15.9340 ca         1 1OF       0.152900
     17 C14         10.2890    23.4720   -14.5360 ca         1 1OF       0.415900
     18 C15         11.8600    26.0390    -8.4450 cc         1 1OF      -0.030000
     19 C16         12.1450    26.3920    -9.7500 cd         1 1OF      -0.101000
     20 C17         12.5190    25.4080   -10.6830 cd         1 1OF       0.118000
     21 C18         12.7890    25.7730   -11.9830 cc         1 1OF      -0.359600
     22 C19         13.1250    24.7710   -12.9420 cc         1 1OF       0.264800
     23 C20         12.9180    22.9810   -11.3050 c          1 1OF       0.582600
     24 C21         12.5830    24.0440   -10.3230 cd         1 1OF      -0.241600
     25 C22         12.3240    23.6860    -9.0070 cc         1 1OF       0.000000
     26 C3          10.7110    24.6500    -4.6920 c5         1 1OF       0.118300
     27 C7           8.1030    29.5880   -11.3560 c5         1 1OF       0.102300
     28 C9           9.1780    27.7920   -12.5170 c5         1 1OF       0.321300
     29 N2          10.2230    26.1810   -15.0270 nb         1 1OF      -0.192000
     30 N4          10.3490    22.1270   -14.3480 nv         1 1OF      -1.084900
     31 N5          12.0840    24.6980    -8.0390 na         1 1OF       0.063000
     32 O1           8.5480    26.8480    -6.9680 os         1 1OF      -0.748800
     33 O10         10.7120    24.2850    -6.1040 os         1 1OF      -0.407000
     34 O12         14.2590    25.0600    -5.6030 oh         1 1OF      -0.700000
     35 O2           6.9770    25.9450    -8.7550 o          1 1OF      -0.829500
     36 O3           8.9260    27.4730    -9.2050 os         1 1OF      -0.629400
     37 O4          10.1530    28.3410   -11.6000 os         1 1OF      -0.452000
     38 O5           6.7610    28.3450   -12.9720 oh         1 1OF      -0.704000
     39 O6           8.1420    30.5840   -12.4030 oh         1 1OF      -0.714000
     40 O7           6.7980    28.3540    -8.1430 o          1 1OF      -0.829500
     41 O8           7.9100    28.2280    -4.9280 o          1 1OF      -0.821000
     42 O9           6.3120    26.4920    -5.7060 o          1 1OF      -0.821000
     43 P            7.7410    26.9140    -5.6170 p5         1 1OF       1.453800
     44 P1           7.6790    27.1560    -8.2400 p5         1 1OF       1.444800
     45 H6           7.4370    27.4930   -11.1900 h1         1 1OF       0.086700
     46 H52         10.5340    28.7590    -8.8850 h1         1 1OF       0.032700
     47 H51          8.9590    29.5040    -8.6250 h1         1 1OF       0.032700
     48 H4          10.1170    30.2280   -10.7300 h1         1 1OF       0.048700
     49 HN6         13.3850    22.7460   -13.2580 hn         1 1OF       0.336500
     50 H2          12.3710    25.4620    -3.4610 h1         1 1OF       0.069700
     51 H42         10.3920    26.7750    -5.0910 h1         1 1OF       0.021700
     52 H41         10.0010    26.2780    -3.4300 h1         1 1OF       0.021700
     53 H           12.4960    23.3290    -6.5460 h2         1 1OF       0.102700
     54 H1          12.5970    26.3170    -5.7620 h1         1 1OF       0.072700
     55 H10          8.8750    25.5640   -10.7480 h5         1 1OF       0.120800
     56 H13         10.9070    25.6220   -16.9130 h5         1 1OF       0.036100
     57 H15         11.5210    26.7390    -7.6910 h4         1 1OF       0.245000
     58 H16         12.0560    27.4270   -10.0620 ha         1 1OF       0.231000
     59 H18         12.7370    26.8070   -12.3130 ha         1 1OF       0.258000
     60 H19         13.3430    24.9510   -13.9860 h4         1 1OF       0.039800
     61 H22         12.3560    22.6650    -8.6430 h4         1 1OF       0.183000
     62 H3          10.1910    23.8690    -4.1220 h1         1 1OF       0.097700
     63 H5           7.3710    29.8640   -10.5800 h1         1 1OF       0.105700
     64 H7           9.3220    28.2580   -13.5000 h2         1 1OF       0.103700
     65 HN41        10.3610    21.5310   -15.1710 hn         1 1OF       0.492000
     66 HN42         9.8830    21.7590   -13.5230 hn         1 1OF       0.492000
     67 HO12        14.3910    24.3130    -4.9650 ho         1 1OF       0.525000
     68 HO5          6.8690    29.2900   -13.2500 ho         1 1OF       0.520000
     69 HO6          8.4050    31.4420   -11.9910 ho         1 1OF       0.497000
     70 O11         12.7920    23.4610    -3.9280 oh         1 1OF      -0.708000
     71 HO11        12.4120    23.1890    -3.0570 ho         1 1OF       0.514000
     72 O13         12.9820    21.7910   -11.0380 o          1 1OF      -0.537000
@<TRIPOS>BOND
     1     1    27 1   
     2     1    28 1   
     3     1    38 1   
     4     1    45 1   
     5     2     3 1   
     6     2    36 1   
     7     2    46 1   
     8     2    47 1   
     9     3    27 1   
    10     3    37 1   
    11     3    48 1   
    12     4    22 2   
    13     4    23 1   
    14     4    49 1   
    15     5    13 2   
    16     5    14 1   
    17     6    12 1   
    18     6    26 1   
    19     6    50 1   
    20     6    70 1   
    21     7    16 ar  
    22     7    17 ar  
    23     8    11 1   
    24     8    26 1   
    25     8    51 1   
    26     8    52 1   
    27     9    13 1   
    28     9    15 1   
    29     9    28 1   
    30    10    12 1   
    31    10    31 1   
    32    10    33 1   
    33    10    53 1   
    34    11    43 1   
    35    12    34 1   
    36    12    54 1   
    37    13    55 1   
    38    14    15 ar  
    39    14    17 ar  
    40    15    29 ar  
    41    16    29 ar  
    42    16    56 1   
    43    17    30 1   
    44    18    19 2   
    45    18    31 1   
    46    18    57 1   
    47    19    20 1   
    48    19    58 1   
    49    20    21 2   
    50    20    24 1   
    51    21    22 1   
    52    21    59 1   
    53    22    60 1   
    54    23    24 1   
    55    23    72 2   
    56    24    25 2   
    57    25    31 1   
    58    25    61 1   
    59    26    33 1   
    60    26    62 1   
    61    27    39 1   
    62    27    63 1   
    63    28    37 1   
    64    28    64 1   
    65    30    65 1   
    66    30    66 1   
    67    32    43 1   
    68    32    44 1   
    69    34    67 1   
    70    35    44 1   
    71    36    44 1   
    72    38    68 1   
    73    39    69 1   
    74    40    44 1   
    75    41    43 1   
    76    42    43 1   
    77    70    71 1   
@<TRIPOS>SUBSTRUCTURE
     1 1OF         1 TEMP              0 ****  ****    0 ROOT
