@<TRIPOS>MOLECULE
1OG
   47    47     1     0     0
SMALL
abcg2


@<TRIPOS>ATOM
      1 CAB         -5.6010     0.9620     0.5630 c3         1 1OG      -0.106433
      2 CBA         -5.1850    -0.0550    -0.4880 c3         1 1OG       0.203000
      3 CAC         -5.7470    -1.4420    -0.2080 c3         1 1OG      -0.106433
      4 CAD         -5.6040     0.4130    -1.8740 c3         1 1OG      -0.106433
      5 OAS         -3.7200    -0.1050    -0.5910 os         1 1OG      -0.452100
      6 CAW         -2.9380    -0.4680     0.3970 c          1 1OG       0.634100
      7 OAH         -3.2690    -0.8650     1.4810 o          1 1OG      -0.474000
      8 CAN         -1.4860    -0.2710    -0.0250 c3         1 1OG      -0.328700
      9 CAV         -1.0940     1.2220    -0.0340 c3         1 1OG      -0.256000
     10 CAL         -0.3310     1.6080    -1.2940 c          1 1OG       0.584900
     11 OAE         -0.1020     2.7550    -1.5610 o          1 1OG      -0.464100
     12 CAM         -0.4070     1.6480     1.2530 c2         1 1OG       0.407200
     13 NAQ          0.8310     1.6430     1.4740 ne         1 1OG      -0.491300
     14 CAY          1.7780     1.2880     0.5330 ce         1 1OG       0.079400
     15 CAU          2.7500     2.4540     0.2520 c          1 1OG       0.728200
     16 OAK          2.9200     2.7800    -0.9310 o          1 1OG      -0.671000
     17 OAG          3.2490     2.9460     1.2740 o          1 1OG      -0.671000
     18 CAX          1.9180     0.0580     0.0030 c2         1 1OG      -0.201400
     19 CAP          1.1940    -1.2250     0.3320 c3         1 1OG      -0.208200
     20 SAZ         -0.4580    -1.3360     1.0310 s6         1 1OG       1.074000
     21 OAI         -0.9000    -2.7040     0.7700 o          1 1OG      -0.514000
     22 OAJ         -0.4600    -0.8670     2.4100 o          1 1OG      -0.514000
     23 CAO          3.0300    -0.2370    -0.9630 c3         1 1OG       0.217800
     24 OAR          3.9590    -1.1050    -0.2840 os         1 1OG      -0.445100
     25 CAT          4.9260    -1.6610    -1.0020 c          1 1OG       0.593100
     26 CAA          5.8370    -2.5100    -0.1650 c3         1 1OG      -0.157100
     27 OAF          5.0630    -1.4770    -2.1870 o          1 1OG      -0.511000
     28 H1          -5.1730     1.9440     0.3520 hc         1 1OG       0.048811
     29 H2          -6.6860     1.0660     0.5400 hc         1 1OG       0.048811
     30 H3          -5.3190     0.6650     1.5710 hc         1 1OG       0.048811
     31 H4          -6.8300    -1.4120    -0.3350 hc         1 1OG       0.048811
     32 H5          -5.3540    -2.1740    -0.9160 hc         1 1OG       0.048811
     33 H6          -5.5420    -1.7870     0.8020 hc         1 1OG       0.048811
     34 H7          -5.1690     1.3840    -2.1140 hc         1 1OG       0.048811
     35 H8          -5.3040    -0.3020    -2.6420 hc         1 1OG       0.048811
     36 H9          -6.6880     0.5110    -1.9140 hc         1 1OG       0.048811
     37 H10         -1.3610    -0.6830    -1.0320 h1         1 1OG       0.111700
     38 H11         -2.0170     1.8090    -0.0870 hc         1 1OG       0.081700
     39 H12         -0.0780     0.7850    -1.9860 h4         1 1OG      -0.009800
     40 H13         -1.0670     1.9530     2.0600 h4         1 1OG       0.031800
     41 H16          1.1200    -1.8240    -0.5790 h1         1 1OG       0.092700
     42 H17          1.7720    -1.8250     1.0440 h1         1 1OG       0.092700
     43 H18          2.6350    -0.7470    -1.8460 h1         1 1OG       0.070200
     44 H19          5.3820    -2.8090     0.7760 hc         1 1OG       0.060033
     45 H20          6.1380    -3.3940    -0.7230 hc         1 1OG       0.060033
     46 H21          6.7420    -1.9420     0.0600 hc         1 1OG       0.060033
     47 H14          3.5370     0.6650    -1.2950 h1         1 1OG       0.070200
@<TRIPOS>BOND
     1     1     2 1   
     2     1    28 1   
     3     1    29 1   
     4     1    30 1   
     5     2     3 1   
     6     2     4 1   
     7     2     5 1   
     8     3    31 1   
     9     3    32 1   
    10     3    33 1   
    11     4    34 1   
    12     4    35 1   
    13     4    36 1   
    14     5     6 1   
    15     6     7 2   
    16     6     8 1   
    17     8     9 1   
    18     8    20 1   
    19     8    37 1   
    20     9    10 1   
    21     9    12 1   
    22     9    38 1   
    23    10    11 2   
    24    10    39 1   
    25    12    13 2   
    26    12    40 1   
    27    13    14 1   
    28    14    15 1   
    29    14    18 2   
    30    15    16 1   
    31    15    17 1   
    32    18    19 1   
    33    18    23 1   
    34    19    20 1   
    35    19    41 1   
    36    19    42 1   
    37    20    21 2   
    38    20    22 2   
    39    23    24 1   
    40    23    43 1   
    41    23    47 1   
    42    24    25 1   
    43    25    26 1   
    44    25    27 2   
    45    26    44 1   
    46    26    45 1   
    47    26    46 1   
@<TRIPOS>SUBSTRUCTURE
     1 1OG         1 TEMP              0 ****  ****    0 ROOT
