@<TRIPOS>MOLECULE
1OG
   47    47     1     0     0
SMALL
No Charge or Current Charge


@<TRIPOS>ATOM
      1 CAB         -5.3390     0.9410    -0.2940 c3         1 1OG      -0.106433
      2 CBA         -4.3980     0.0470    -1.1430 c3         1 1OG       0.203000
      3 CAC         -4.8560    -1.4320    -1.2080 c3         1 1OG      -0.106433
      4 CAD         -4.2720     0.6240    -2.5700 c3         1 1OG      -0.106433
      5 OAS         -3.0550     0.1180    -0.6140 os         1 1OG      -0.452100
      6 CAW         -2.7230    -0.3280     0.6440 c          1 1OG       0.634100
      7 OAH         -3.5040    -0.7580     1.4780 o          1 1OG      -0.474000
      8 CAN         -1.2620    -0.0290     0.9170 c3         1 1OG      -0.328700
      9 CAV         -1.0660     1.4240     1.5340 c3         1 1OG      -0.256000
     10 CAL         -1.2740     2.5250     0.4920 c          1 1OG       0.584900
     11 OAE         -2.0960     3.4220     0.6260 o          1 1OG      -0.464100
     12 CAM          0.2180     1.7180     2.2980 c2         1 1OG       0.407200
     13 NAQ          1.4400     1.5820     1.8590 ne         1 1OG      -0.491300
     14 CAY          1.7260     1.0090     0.5930 ce         1 1OG       0.079400
     15 CAU          2.1330     1.9600    -0.5580 c          1 1OG       0.728200
     16 OAK          2.3990     1.5180    -1.6680 o          1 1OG      -0.671000
     17 OAG          2.1460     3.1650    -0.3310 o          1 1OG      -0.671000
     18 CAX          1.6690    -0.3600     0.5140 c2         1 1OG      -0.201400
     19 CAP          1.2390    -1.2450     1.6980 c3         1 1OG      -0.208200
     20 SAZ         -0.5660    -1.4200     1.8410 s6         1 1OG       1.074000
     21 OAI         -0.9380    -2.6510     1.1310 o          1 1OG      -0.514000
     22 OAJ         -0.9250    -1.2650     3.2560 o          1 1OG      -0.514000
     23 CAO          1.9800    -1.2090    -0.7160 c3         1 1OG       0.217800
     24 OAR          3.4070    -1.3520    -0.7860 os         1 1OG      -0.445100
     25 CAT          3.9260    -2.0630    -1.8330 c          1 1OG       0.593100
     26 CAA          5.4470    -2.1220    -1.7730 c3         1 1OG      -0.157100
     27 OAF          3.2600    -2.6080    -2.7030 o          1 1OG      -0.511000
     28 H1          -4.8890     1.9260    -0.1210 hc         1 1OG       0.048811
     29 H2          -6.2930     1.0910    -0.8120 hc         1 1OG       0.048811
     30 H3          -5.5680     0.4900     0.6780 hc         1 1OG       0.048811
     31 H4          -5.7690    -1.5230    -1.8090 hc         1 1OG       0.048811
     32 H5          -4.0840    -2.0590    -1.6710 hc         1 1OG       0.048811
     33 H6          -5.0820    -1.8370    -0.2160 hc         1 1OG       0.048811
     34 H7          -3.9050     1.6580    -2.5410 hc         1 1OG       0.048811
     35 H8          -3.5720     0.0300    -3.1700 hc         1 1OG       0.048811
     36 H9          -5.2430     0.6230    -3.0800 hc         1 1OG       0.048811
     37 H10         -0.7670    -0.0850    -0.0570 h1         1 1OG       0.111700
     38 H11         -1.8660     1.5600     2.2730 hc         1 1OG       0.081700
     39 H12         -0.6450     2.4560    -0.4220 h4         1 1OG      -0.009800
     40 H13          0.0900     2.1420     3.2910 h4         1 1OG       0.031800
     41 H16          1.6390    -2.2620     1.6160 h1         1 1OG       0.092700
     42 H17          1.5840    -0.8340     2.6530 h1         1 1OG       0.092700
     43 H18          1.5020    -2.1950    -0.6340 h1         1 1OG       0.070200
     44 H19          5.7480    -2.5130    -0.7940 hc         1 1OG       0.060033
     45 H20          5.8810    -2.7010    -2.5950 hc         1 1OG       0.060033
     46 H21          5.8390    -1.0990    -1.7420 hc         1 1OG       0.060033
     47 H14          1.5750    -0.7470    -1.6260 h1         1 1OG       0.070200
@<TRIPOS>BOND
     1     1     2 1   
     2     1    28 1   
     3     1    29 1   
     4     1    30 1   
     5     2     3 1   
     6     2     4 1   
     7     2     5 1   
     8     3    31 1   
     9     3    32 1   
    10     3    33 1   
    11     4    34 1   
    12     4    35 1   
    13     4    36 1   
    14     5     6 1   
    15     6     7 2   
    16     6     8 1   
    17     8     9 1   
    18     8    20 1   
    19     8    37 1   
    20     9    10 1   
    21     9    12 1   
    22     9    38 1   
    23    10    11 2   
    24    10    39 1   
    25    12    13 2   
    26    12    40 1   
    27    13    14 1   
    28    14    15 1   
    29    14    18 2   
    30    15    16 1   
    31    15    17 1   
    32    18    19 1   
    33    18    23 1   
    34    19    20 1   
    35    19    41 1   
    36    19    42 1   
    37    20    21 2   
    38    20    22 2   
    39    23    24 1   
    40    23    43 1   
    41    23    47 1   
    42    24    25 1   
    43    25    26 1   
    44    25    27 2   
    45    26    44 1   
    46    26    45 1   
    47    26    46 1   
@<TRIPOS>SUBSTRUCTURE
     1 1OG         1 TEMP              0 ****  ****    0 ROOT
