@<TRIPOS>MOLECULE
1OH
   32    33     1     0     0
SMALL
No Charge or Current Charge


@<TRIPOS>ATOM
      1 O2          -4.5120    -1.3980     0.0260 oh         1 1OH      -0.535100
      2 C13         -3.3160    -0.7460     0.0240 ca         1 1OH       0.136100
      3 C14         -2.3270    -1.0830    -0.9100 ca         1 1OH      -0.176500
      4 C15         -1.0950    -0.4050    -0.9040 ca         1 1OH      -0.066500
      5 C12         -3.0750     0.2660     0.9610 ca         1 1OH      -0.176500
      6 C11         -1.8440     0.9470     0.9710 ca         1 1OH      -0.066500
      7 C4          -0.8310     0.6180     0.0370 ca         1 1OH      -0.108300
      8 C2           0.5440     1.3320    -0.0050 c3         1 1OH       0.055600
      9 C5           0.5720     2.2020    -1.2930 c3         1 1OH      -0.082100
     10 C3           0.7790     2.2800     1.2050 c3         1 1OH      -0.082100
     11 C1           1.6580     0.2560     0.0310 ca         1 1OH      -0.070300
     12 C6           2.7090     0.1990    -0.9190 ca         1 1OH      -0.106000
     13 C7           3.6960    -0.7990    -0.8380 ca         1 1OH      -0.112000
     14 C8           3.6550    -1.7540     0.1880 ca         1 1OH      -0.112000
     15 C9           2.6250    -1.7100     1.1380 ca         1 1OH      -0.112000
     16 C10          1.6370    -0.7140     1.0610 ca         1 1OH      -0.106000
     17 H2          -4.5020    -2.0660    -0.6920 ho         1 1OH       0.463000
     18 H14         -2.5020    -1.8670    -1.6420 ha         1 1OH       0.119500
     19 H15         -0.3390    -0.6810    -1.6350 ha         1 1OH       0.115000
     20 H12         -3.8430     0.5280     1.6840 ha         1 1OH       0.119500
     21 H11         -1.7020     1.7280     1.7120 ha         1 1OH       0.115000
     22 H51         -0.2740     2.9000    -1.3020 hc         1 1OH       0.038200
     23 H52          1.4910     2.7970    -1.3530 hc         1 1OH       0.038200
     24 H53          0.5010     1.5830    -2.1950 hc         1 1OH       0.038200
     25 H31          0.6800     1.7450     2.1580 hc         1 1OH       0.038200
     26 H32          1.7890     2.7050     1.1670 hc         1 1OH       0.038200
     27 H33          0.0690     3.1150     1.2020 hc         1 1OH       0.038200
     28 H6           2.7810     0.9200    -1.7270 ha         1 1OH       0.113500
     29 H7           4.4960    -0.8300    -1.5750 ha         1 1OH       0.110500
     30 H8           4.4210    -2.5250     0.2480 ha         1 1OH       0.111000
     31 H9           2.5900    -2.4480     1.9370 ha         1 1OH       0.110500
     32 H10          0.8460    -0.6990     1.8060 ha         1 1OH       0.113500
@<TRIPOS>BOND
     1     1     2 1   
     2     1    17 1   
     3     2     3 ar  
     4     2     5 ar  
     5     3     4 ar  
     6     3    18 1   
     7     4     7 ar  
     8     4    19 1   
     9     5     6 ar  
    10     5    20 1   
    11     6     7 ar  
    12     6    21 1   
    13     7     8 1   
    14     8     9 1   
    15     8    10 1   
    16     8    11 1   
    17     9    22 1   
    18     9    23 1   
    19     9    24 1   
    20    10    25 1   
    21    10    26 1   
    22    10    27 1   
    23    11    12 ar  
    24    11    16 ar  
    25    12    13 ar  
    26    12    28 1   
    27    13    14 ar  
    28    13    29 1   
    29    14    15 ar  
    30    14    30 1   
    31    15    16 ar  
    32    15    31 1   
    33    16    32 1   
@<TRIPOS>SUBSTRUCTURE
     1 1OH         1 TEMP              0 ****  ****    0 ROOT
