@<TRIPOS>MOLECULE
1OH
   32    33     1     0     0
SMALL
bcc


@<TRIPOS>ATOM
      1 O2          -4.5370    -1.2950     0.0230 oh         1 1OH      -0.496100
      2 C13         -3.3220    -0.7070     0.0000 ca         1 1OH       0.136100
      3 C14         -2.3270    -1.0650    -0.9080 ca         1 1OH      -0.194500
      4 C15         -1.1000    -0.4240    -0.8790 ca         1 1OH      -0.084500
      5 C12         -3.0590     0.2940     0.9260 ca         1 1OH      -0.194500
      6 C11         -1.8220     0.9250     0.9400 ca         1 1OH      -0.084500
      7 C4          -0.8160     0.5850     0.0420 ca         1 1OH      -0.108300
      8 C2           0.5390     1.2850    -0.0050 c3         1 1OH       0.055600
      9 C5           0.5790     2.1460    -1.2750 c3         1 1OH      -0.082100
     10 C3           0.7570     2.2160     1.1950 c3         1 1OH      -0.082100
     11 C1           1.6470     0.2330     0.0230 ca         1 1OH      -0.070300
     12 C6           2.6830     0.2020    -0.9040 ca         1 1OH      -0.124000
     13 C7           3.6940    -0.7510    -0.8210 ca         1 1OH      -0.130000
     14 C8           3.6880    -1.6920     0.1960 ca         1 1OH      -0.130000
     15 C9           2.6590    -1.6720     1.1310 ca         1 1OH      -0.130000
     16 C10          1.6540    -0.7230     1.0410 ca         1 1OH      -0.124000
     17 H2          -4.5940    -1.9740    -0.6580 ho         1 1OH       0.424000
     18 H14         -2.5070    -1.8470    -1.6380 ha         1 1OH       0.137500
     19 H15         -0.3440    -0.7280    -1.5930 ha         1 1OH       0.133000
     20 H12         -3.8220     0.5820     1.6400 ha         1 1OH       0.137500
     21 H11         -1.6620     1.6990     1.6790 ha         1 1OH       0.133000
     22 H51         -0.2520     2.8520    -1.2620 hc         1 1OH       0.038200
     23 H52          1.5020     2.7260    -1.3370 hc         1 1OH       0.038200
     24 H53          0.4910     1.5470    -2.1820 hc         1 1OH       0.038200
     25 H31          0.6920     1.6850     2.1460 hc         1 1OH       0.038200
     26 H32          1.7490     2.6650     1.1360 hc         1 1OH       0.038200
     27 H33          0.0300     3.0290     1.2100 hc         1 1OH       0.038200
     28 H6           2.7220     0.9230    -1.7100 ha         1 1OH       0.131500
     29 H7           4.4870    -0.7540    -1.5590 ha         1 1OH       0.128500
     30 H8           4.4740    -2.4330     0.2620 ha         1 1OH       0.129000
     31 H9           2.6390    -2.4010     1.9320 ha         1 1OH       0.128500
     32 H10          0.8570    -0.7320     1.7750 ha         1 1OH       0.131500
@<TRIPOS>BOND
     1     1     2 1   
     2     1    17 1   
     3     2     3 ar  
     4     2     5 ar  
     5     3     4 ar  
     6     3    18 1   
     7     4     7 ar  
     8     4    19 1   
     9     5     6 ar  
    10     5    20 1   
    11     6     7 ar  
    12     6    21 1   
    13     7     8 1   
    14     8     9 1   
    15     8    10 1   
    16     8    11 1   
    17     9    22 1   
    18     9    23 1   
    19     9    24 1   
    20    10    25 1   
    21    10    26 1   
    22    10    27 1   
    23    11    12 ar  
    24    11    16 ar  
    25    12    13 ar  
    26    12    28 1   
    27    13    14 ar  
    28    13    29 1   
    29    14    15 ar  
    30    14    30 1   
    31    15    16 ar  
    32    15    31 1   
    33    16    32 1   
@<TRIPOS>SUBSTRUCTURE
     1 1OH         1 TEMP              0 ****  ****    0 ROOT
