@<TRIPOS>MOLECULE
1OI
   25    27     1     0     0
SMALL
abcg2


@<TRIPOS>ATOM
      1 C4          16.1560    14.4750     9.1500 ca         1 1OI      -0.011000
      2 C5          16.1830    14.9960    10.4510 ca         1 1OI      -0.207600
      3 C6          17.4790    15.2750    11.0730 c          1 1OI       0.584600
      4 C11         14.9670    15.2360    11.1160 ca         1 1OI       0.099000
      5 C7          16.2510    16.0180    13.0050 cc         1 1OI      -0.024400
      6 C8          14.4160    16.5820    14.5370 cc         1 1OI      -0.248000
      7 C9          13.9640    16.1040    13.3550 cd         1 1OI      -0.070000
      8 C10         15.0200    15.7700    12.4510 cd         1 1OI      -0.152000
      9 C12         13.7560    14.9500    10.4730 ca         1 1OI      -0.223000
     10 N1          17.4220    15.7840    12.3480 ns         1 1OI      -0.355100
     11 C3          14.9700    14.1950     8.5230 ca         1 1OI      -0.167000
     12 C1          11.3850    14.3400     9.1070 c3         1 1OI       0.146900
     13 C2          13.7540    14.4340     9.1880 ca         1 1OI       0.180100
     14 O2          18.5570    15.0830    10.5310 o          1 1OI      -0.550000
     15 S1          16.1440    16.6470    14.6010 ss         1 1OI       0.184000
     16 H1          17.0880    14.2910     8.6330 ha         1 1OI       0.138000
     17 H2          13.8420    16.9080    15.3910 h4         1 1OI       0.155000
     18 H3          12.9130    15.9920    13.1330 ha         1 1OI       0.136000
     19 H4          12.8300    15.1390    10.9970 ha         1 1OI       0.121000
     20 H5          18.3050    15.9800    12.8000 hn         1 1OI       0.335500
     21 H6          14.9580    13.7920     7.5180 ha         1 1OI       0.133000
     22 H7          10.6400    14.0370     8.3770 h1         1 1OI       0.043700
     23 H8          11.2650    13.7350    10.0080 h1         1 1OI       0.043700
     24 H9          11.2260    15.3910     9.3600 h1         1 1OI       0.043700
     25 O1          12.6470    14.1330     8.4990 os         1 1OI      -0.337100
@<TRIPOS>BOND
     1     1     2 ar  
     2     1    11 ar  
     3     1    16 1   
     4     2     3 1   
     5     2     4 ar  
     6     3    10 1   
     7     3    14 2   
     8     4     8 1   
     9     4     9 ar  
    10     5     8 2   
    11     5    10 1   
    12     5    15 1   
    13     6     7 2   
    14     6    15 1   
    15     6    17 1   
    16     7     8 1   
    17     7    18 1   
    18     9    13 ar  
    19     9    19 1   
    20    10    20 1   
    21    11    13 ar  
    22    11    21 1   
    23    12    22 1   
    24    12    23 1   
    25    12    24 1   
    26    12    25 1   
    27    13    25 1   
@<TRIPOS>SUBSTRUCTURE
     1 1OI         1 TEMP              0 ****  ****    0 ROOT
