@<TRIPOS>MOLECULE
1OI
   25    27     1     0     0
SMALL
No Charge or Current Charge


@<TRIPOS>ATOM
      1 C4          16.1980    14.4630     9.1160 ca         1 1OI      -0.011000
      2 C5          16.2250    14.9860    10.4250 ca         1 1OI      -0.207600
      3 C6          17.5420    15.2870    11.1000 c          1 1OI       0.584600
      4 C11         15.0120    15.2290    11.1070 ca         1 1OI       0.099000
      5 C7          16.2880    16.0390    13.0580 cc         1 1OI      -0.024400
      6 C8          14.3690    16.5910    14.5590 cc         1 1OI      -0.248000
      7 C9          13.9860    16.0940    13.3360 cd         1 1OI      -0.070000
      8 C10         15.0790    15.7760    12.4730 cd         1 1OI      -0.152000
      9 C12         13.7840    14.9470    10.4750 ca         1 1OI      -0.223000
     10 N1          17.4660    15.7950    12.3770 ns         1 1OI      -0.355100
     11 C3          14.9700    14.1850     8.4950 ca         1 1OI      -0.167000
     12 C1          11.2960    14.3360     9.0950 c3         1 1OI       0.146900
     13 C2          13.7630    14.4240     9.1650 ca         1 1OI       0.180100
     14 O2          18.6230    15.0980    10.5620 o          1 1OI      -0.550000
     15 S1          16.1220    16.6850    14.6870 ss         1 1OI       0.184000
     16 H1          17.1250    14.2710     8.5780 ha         1 1OI       0.138000
     17 H2          13.7540    16.9090    15.3910 h4         1 1OI       0.155000
     18 H3          12.9430    15.9620    13.0670 ha         1 1OI       0.136000
     19 H4          12.8580    15.1360    11.0040 ha         1 1OI       0.121000
     20 H5          18.3560    15.9920    12.8170 hn         1 1OI       0.335500
     21 H6          14.9540    13.7820     7.4860 ha         1 1OI       0.133000
     22 H7          10.5050    14.0380     8.3960 h1         1 1OI       0.043700
     23 H8          11.1860    13.7370    10.0080 h1         1 1OI       0.043700
     24 H9          11.1460    15.3940     9.3470 h1         1 1OI       0.043700
     25 O1          12.5900    14.1300     8.5000 os         1 1OI      -0.337100
@<TRIPOS>BOND
     1     1     2 ar  
     2     1    11 ar  
     3     1    16 1   
     4     2     3 1   
     5     2     4 ar  
     6     3    10 1   
     7     3    14 2   
     8     4     8 1   
     9     4     9 ar  
    10     5     8 2   
    11     5    10 1   
    12     5    15 1   
    13     6     7 2   
    14     6    15 1   
    15     6    17 1   
    16     7     8 1   
    17     7    18 1   
    18     9    13 ar  
    19     9    19 1   
    20    10    20 1   
    21    11    13 ar  
    22    11    21 1   
    23    12    22 1   
    24    12    23 1   
    25    12    24 1   
    26    12    25 1   
    27    13    25 1   
@<TRIPOS>SUBSTRUCTURE
     1 1OI         1 TEMP              0 ****  ****    0 ROOT
