@<TRIPOS>MOLECULE
1OJ
   71    74     1     0     0
SMALL
No Charge or Current Charge


@<TRIPOS>ATOM
      1 C13         -0.4150     1.9390     2.0920 c          1 1OJ       0.623100
      2 C18          0.6840    -2.3110     0.6470 ca         1 1OJ       0.110100
      3 C17          0.9530    -1.1600     1.4240 ca         1 1OJ      -0.172000
      4 C16          0.8120     0.1270     0.8680 ca         1 1OJ      -0.154300
      5 C19          0.2800    -2.1710    -0.7030 ca         1 1OJ       0.139100
      6 C20          0.1460    -0.8780    -1.2560 ca         1 1OJ      -0.180000
      7 C21          0.4070     0.2570    -0.4750 ca         1 1OJ      -0.070000
      8 C24          1.1380    -3.8270     2.5500 c3         1 1OJ       0.161600
      9 C12          1.0070     1.3720     1.7410 c3         1 1OJ       0.212800
     10 C34         -2.8400    -2.3860     0.8900 ca         1 1OJ      -0.137000
     11 C27         -0.9540    -4.6870    -3.1440 c3         1 1OJ      -0.104100
     12 C33         -2.7210    -1.5230     1.9910 ca         1 1OJ       0.032000
     13 C1           6.6780     3.1020    -2.6600 ca         1 1OJ       0.330900
     14 N2           7.4580     2.1040    -2.1820 nb         1 1OJ      -0.678000
     15 C3           6.9750     1.3630    -1.1560 ca         1 1OJ       0.373900
     16 C4           5.7110     1.5870    -0.5750 ca         1 1OJ      -0.141000
     17 C5           4.9080     2.6270    -1.0790 ca         1 1OJ       0.038000
     18 C6           5.4050     3.3960    -2.1430 ca         1 1OJ      -0.161000
     19 C7           5.2450     0.7960     0.4910 ca         1 1OJ      -0.044000
     20 C8           3.9780     1.0500     1.0440 ca         1 1OJ      -0.161000
     21 C9           3.1730     2.0860     0.5360 ca         1 1OJ       0.347000
     22 C10          3.6420     2.8760    -0.5230 ca         1 1OJ      -0.204000
     23 N11          1.9110     2.3520     1.0660 nu         1 1OJ      -0.956200
     24 O14         -0.9510     2.8290     1.4430 o          1 1OJ      -0.523100
     25 N15         -1.0370     1.3090     3.1320 ns         1 1OJ      -0.571300
     26 O22         -0.0100    -3.3180    -1.4280 os         1 1OJ      -0.337100
     27 C25          1.1280    -5.3480     2.7710 c3         1 1OJ      -0.093100
     28 C26         -0.3070    -3.3230    -2.8370 c3         1 1OJ       0.168300
     29 C28          1.0090    -3.1130    -3.6180 c3         1 1OJ      -0.104100
     30 S29         -2.6720     0.9770     3.2080 sy         1 1OJ       1.182300
     31 O30         -2.8570     0.2240     4.4520 o          1 1OJ      -0.515500
     32 O31         -3.3870     2.2310     2.9470 o          1 1OJ      -0.515500
     33 C32         -2.9070    -0.1350     1.8190 ca         1 1OJ      -0.321500
     34 C35         -3.1340    -1.8740    -0.3830 ca         1 1OJ       0.036000
     35 C36         -3.3100    -0.4870    -0.5570 ca         1 1OJ      -0.288500
     36 C37         -3.2000     0.3860     0.5430 ca         1 1OJ       0.099000
     37 S38         -3.6490     0.1680    -2.1840 sy         1 1OJ       1.129600
     38 O39         -3.3860     1.6030    -2.2350 o          1 1OJ      -0.545500
     39 O40         -3.1840    -0.7480    -3.2210 o          1 1OJ      -0.545500
     40 N41         -5.2700     0.0690    -2.2900 n8         1 1OJ      -1.006100
     41 H1           1.2530    -1.2500     2.4640 ha         1 1OJ       0.111000
     42 H2          -0.1770    -0.7310    -2.2810 ha         1 1OJ       0.132000
     43 H3           0.2770     1.2450    -0.9120 ha         1 1OJ       0.136000
     44 H4           2.1370    -3.4320     2.7710 h1         1 1OJ       0.028200
     45 H5           0.4110    -3.3570     3.2250 h1         1 1OJ       0.028200
     46 H6           1.4650     1.0690     2.6930 h1         1 1OJ       0.076700
     47 H7          -2.6910    -3.4550     1.0220 ha         1 1OJ       0.133000
     48 H8          -1.8780    -4.8110    -2.5670 hc         1 1OJ       0.047033
     49 H9          -1.2050    -4.7610    -4.2090 hc         1 1OJ       0.047033
     50 H10         -0.2730    -5.5090    -2.8920 hc         1 1OJ       0.047033
     51 H11         -2.4740    -1.9380     2.9670 ha         1 1OJ       0.137000
     52 H12          7.0870     3.6830    -3.4860 h4         1 1OJ       0.015100
     53 H13          7.6230     0.5670    -0.7910 h4         1 1OJ       0.013100
     54 H14          4.8230     4.2090    -2.5660 ha         1 1OJ       0.122000
     55 H15          5.8590    -0.0090     0.8900 ha         1 1OJ       0.114000
     56 H16          3.6270     0.4370     1.8680 ha         1 1OJ       0.114000
     57 H17          3.0250     3.6780    -0.9170 ha         1 1OJ       0.120000
     58 H18          1.4480     3.1740     0.6710 hn         1 1OJ       0.503000
     59 H19         -0.5330     0.5810     3.6090 hn         1 1OJ       0.338500
     60 H20          0.1340    -5.7620     2.5650 hc         1 1OJ       0.049367
     61 H21          1.8560    -5.8380     2.1130 hc         1 1OJ       0.049367
     62 H22          1.3900    -5.5820     3.8090 hc         1 1OJ       0.049367
     63 H23         -1.0320    -2.5410    -3.0960 h1         1 1OJ       0.054700
     64 H24          1.4500    -2.1330    -3.4030 hc         1 1OJ       0.047033
     65 H25          1.7440    -3.8850    -3.3570 hc         1 1OJ       0.047033
     66 H26          0.8250    -3.1680    -4.6970 hc         1 1OJ       0.047033
     67 H27         -3.2140    -2.5550    -1.2290 ha         1 1OJ       0.141000
     68 H28         -3.3240     1.4610     0.4020 ha         1 1OJ       0.166000
     69 H29         -5.4920     1.0150    -2.5900 hn         1 1OJ       0.480000
     70 H30         -5.3620    -0.4550    -3.1570 hn         1 1OJ       0.480000
     71 O23          0.7870    -3.5870     1.1780 os         1 1OJ      -0.328100
@<TRIPOS>BOND
     1     1     9 1   
     2     1    24 2   
     3     1    25 1   
     4     2     3 ar  
     5     2     5 ar  
     6     2    71 1   
     7     3     4 ar  
     8     3    41 1   
     9     4     7 ar  
    10     4     9 1   
    11     5     6 ar  
    12     5    26 1   
    13     6     7 ar  
    14     6    42 1   
    15     7    43 1   
    16     8    27 1   
    17     8    44 1   
    18     8    45 1   
    19     8    71 1   
    20     9    23 1   
    21     9    46 1   
    22    10    12 ar  
    23    10    34 ar  
    24    10    47 1   
    25    11    28 1   
    26    11    48 1   
    27    11    49 1   
    28    11    50 1   
    29    12    33 ar  
    30    12    51 1   
    31    13    14 ar  
    32    13    18 ar  
    33    13    52 1   
    34    14    15 ar  
    35    15    16 ar  
    36    15    53 1   
    37    16    17 ar  
    38    16    19 ar  
    39    17    18 ar  
    40    17    22 ar  
    41    18    54 1   
    42    19    20 ar  
    43    19    55 1   
    44    20    21 ar  
    45    20    56 1   
    46    21    22 ar  
    47    21    23 1   
    48    22    57 1   
    49    23    58 1   
    50    25    30 1   
    51    25    59 1   
    52    26    28 1   
    53    27    60 1   
    54    27    61 1   
    55    27    62 1   
    56    28    29 1   
    57    28    63 1   
    58    29    64 1   
    59    29    65 1   
    60    29    66 1   
    61    30    31 2   
    62    30    32 2   
    63    30    33 1   
    64    33    36 ar  
    65    34    35 ar  
    66    34    67 1   
    67    35    36 ar  
    68    35    37 1   
    69    36    68 1   
    70    37    38 2   
    71    37    39 2   
    72    37    40 1   
    73    40    69 1   
    74    40    70 1   
@<TRIPOS>SUBSTRUCTURE
     1 1OJ         1 TEMP              0 ****  ****    0 ROOT
