@<TRIPOS>MOLECULE
1OJ
   71    74     1     0     0
SMALL
abcg2


@<TRIPOS>ATOM
      1 C13         -0.2230     1.7560     1.8730 c          1 1OJ       0.623100
      2 C18          0.6530    -2.3710     0.6270 ca         1 1OJ       0.110100
      3 C17          1.0000    -1.2300     1.3290 ca         1 1OJ      -0.172000
      4 C16          0.9480     0.0260     0.7210 ca         1 1OJ      -0.154300
      5 C19          0.2530    -2.2650    -0.7230 ca         1 1OJ       0.139100
      6 C20          0.2160    -1.0160    -1.3190 ca         1 1OJ      -0.180000
      7 C21          0.5540     0.1260    -0.5980 ca         1 1OJ      -0.070000
      8 C24          0.9380    -3.7890     2.5140 c3         1 1OJ       0.161600
      9 C12          1.1870     1.2790     1.5520 c3         1 1OJ       0.212800
     10 C34         -2.8450    -2.5610     0.8010 ca         1 1OJ      -0.137000
     11 C27         -1.3310    -4.7350    -2.8230 c3         1 1OJ      -0.104100
     12 C33         -2.6440    -1.7000     1.8650 ca         1 1OJ       0.032000
     13 C1           6.8750     3.6870    -2.2860 ca         1 1OJ       0.330900
     14 N2           7.6620     2.6780    -1.8460 nb         1 1OJ      -0.678000
     15 C3           7.1400     1.8380    -0.9900 ca         1 1OJ       0.373900
     16 C4           5.8190     1.9220    -0.5030 ca         1 1OJ      -0.141000
     17 C5           4.9990     2.9820    -0.9610 ca         1 1OJ       0.038000
     18 C6           5.5820     3.8790    -1.8900 ca         1 1OJ      -0.161000
     19 C7           5.2820     0.9970     0.4170 ca         1 1OJ      -0.044000
     20 C8           3.9980     1.1160     0.8620 ca         1 1OJ      -0.161000
     21 C9           3.1670     2.1830     0.4110 ca         1 1OJ       0.347000
     22 C10          3.6790     3.0940    -0.4970 ca         1 1OJ      -0.204000
     23 N11          1.8930     2.3290     0.8850 nu         1 1OJ      -0.956200
     24 O14         -0.8000     2.5840     1.2140 o          1 1OJ      -0.523100
     25 N15         -0.8120     1.0650     2.9090 ns         1 1OJ      -0.571300
     26 O22         -0.0940    -3.4240    -1.3040 os         1 1OJ      -0.337100
     27 C25          0.7960    -5.2560     2.8420 c3         1 1OJ      -0.093100
     28 C26         -0.5520    -3.4450    -2.6580 c3         1 1OJ       0.168300
     29 C28          0.6110    -3.3630    -3.6330 c3         1 1OJ      -0.104100
     30 S29         -2.4640     0.7680     3.0180 sy         1 1OJ       1.182300
     31 O30         -2.6170     0.0290     4.2520 o          1 1OJ      -0.515500
     32 O31         -3.1790     2.0010     2.7920 o          1 1OJ      -0.515500
     33 C32         -2.7450    -0.3290     1.6560 ca         1 1OJ      -0.321500
     34 C35         -3.1220    -2.0570    -0.4620 ca         1 1OJ       0.036000
     35 C36         -3.1950    -0.6870    -0.6440 ca         1 1OJ      -0.288500
     36 C37         -3.0230     0.2000     0.4080 ca         1 1OJ       0.099000
     37 S38         -3.4500    -0.0140    -2.2670 sy         1 1OJ       1.129600
     38 O39         -2.5670     1.1280    -2.4430 o          1 1OJ      -0.545500
     39 O40         -3.3670    -1.1140    -3.2170 o          1 1OJ      -0.545500
     40 N41         -4.9700     0.6000    -2.1210 n8         1 1OJ      -1.006100
     41 H1           1.3100    -1.3000     2.3640 ha         1 1OJ       0.111000
     42 H2          -0.0920    -0.9000    -2.3490 ha         1 1OJ       0.132000
     43 H3           0.4850     1.0890    -1.0860 ha         1 1OJ       0.136000
     44 H4           1.9540    -3.4430     2.7340 h1         1 1OJ       0.028200
     45 H5           0.2510    -3.1930     3.1260 h1         1 1OJ       0.028200
     46 H6           1.6970     1.0060     2.4840 h1         1 1OJ       0.076700
     47 H7          -2.7810    -3.6290     0.9530 ha         1 1OJ       0.133000
     48 H8          -2.1610    -4.7940    -2.1180 hc         1 1OJ       0.047033
     49 H9          -1.7430    -4.7890    -3.8300 hc         1 1OJ       0.047033
     50 H10         -0.6910    -5.6060    -2.6750 hc         1 1OJ       0.047033
     51 H11         -2.4240    -2.1000     2.8450 ha         1 1OJ       0.137000
     52 H12          7.3310     4.3650    -2.9980 h4         1 1OJ       0.015100
     53 H13          7.7760     1.0290    -0.6380 h4         1 1OJ       0.013100
     54 H14          5.0080     4.7070    -2.2840 ha         1 1OJ       0.122000
     55 H15          5.9000     0.1830     0.7760 ha         1 1OJ       0.114000
     56 H16          3.6180     0.3880     1.5660 ha         1 1OJ       0.114000
     57 H17          3.0560     3.9030    -0.8610 ha         1 1OJ       0.120000
     58 H18          1.3240     3.0270     0.4300 hn         1 1OJ       0.503000
     59 H19         -0.2410     0.4320     3.4560 hn         1 1OJ       0.338500
     60 H20         -0.2170    -5.6100     2.6520 hc         1 1OJ       0.049367
     61 H21          1.4930    -5.8630     2.2650 hc         1 1OJ       0.049367
     62 H22          1.0140    -5.4110     3.8990 hc         1 1OJ       0.049367
     63 H23         -1.2360    -2.6050    -2.8220 h1         1 1OJ       0.054700
     64 H24          1.1950    -2.4500    -3.5180 hc         1 1OJ       0.047033
     65 H25          1.2800    -4.2150    -3.5070 hc         1 1OJ       0.047033
     66 H26          0.2310    -3.3810    -4.6550 hc         1 1OJ       0.047033
     67 H27         -3.2710    -2.7330    -1.2920 ha         1 1OJ       0.141000
     68 H28         -3.1040     1.2680     0.2550 ha         1 1OJ       0.166000
     69 H29         -5.1430     1.3430    -2.7910 hn         1 1OJ       0.480000
     70 H30         -5.6930    -0.1100    -2.1790 hn         1 1OJ       0.480000
     71 O23          0.6450    -3.6140     1.1360 os         1 1OJ      -0.328100
@<TRIPOS>BOND
     1     1     9 1   
     2     1    24 2   
     3     1    25 1   
     4     2     3 ar  
     5     2     5 ar  
     6     2    71 1   
     7     3     4 ar  
     8     3    41 1   
     9     4     7 ar  
    10     4     9 1   
    11     5     6 ar  
    12     5    26 1   
    13     6     7 ar  
    14     6    42 1   
    15     7    43 1   
    16     8    27 1   
    17     8    44 1   
    18     8    45 1   
    19     8    71 1   
    20     9    23 1   
    21     9    46 1   
    22    10    12 ar  
    23    10    34 ar  
    24    10    47 1   
    25    11    28 1   
    26    11    48 1   
    27    11    49 1   
    28    11    50 1   
    29    12    33 ar  
    30    12    51 1   
    31    13    14 ar  
    32    13    18 ar  
    33    13    52 1   
    34    14    15 ar  
    35    15    16 ar  
    36    15    53 1   
    37    16    17 ar  
    38    16    19 ar  
    39    17    18 ar  
    40    17    22 ar  
    41    18    54 1   
    42    19    20 ar  
    43    19    55 1   
    44    20    21 ar  
    45    20    56 1   
    46    21    22 ar  
    47    21    23 1   
    48    22    57 1   
    49    23    58 1   
    50    25    30 1   
    51    25    59 1   
    52    26    28 1   
    53    27    60 1   
    54    27    61 1   
    55    27    62 1   
    56    28    29 1   
    57    28    63 1   
    58    29    64 1   
    59    29    65 1   
    60    29    66 1   
    61    30    31 2   
    62    30    32 2   
    63    30    33 1   
    64    33    36 ar  
    65    34    35 ar  
    66    34    67 1   
    67    35    36 ar  
    68    35    37 1   
    69    36    68 1   
    70    37    38 2   
    71    37    39 2   
    72    37    40 1   
    73    40    69 1   
    74    40    70 1   
@<TRIPOS>SUBSTRUCTURE
     1 1OJ         1 TEMP              0 ****  ****    0 ROOT
