@<TRIPOS>MOLECULE
1OK
   68    71     1     0     0
SMALL
No Charge or Current Charge


@<TRIPOS>ATOM
      1 C13          8.7150    33.7440    28.5080 ca         1 1OK      -0.165000
      2 C18          8.9690    33.4760    27.1460 ca         1 1OK      -0.036000
      3 C17          8.9000    34.5180    26.2040 ca         1 1OK      -0.180000
      4 C16          8.5800    35.8230    26.6070 ca         1 1OK       0.345000
      5 C15          8.3400    36.0930    27.9630 ca         1 1OK      -0.198000
      6 C21          7.5770    38.0010    25.6620 c3         1 1OK       0.203800
      7 C22          6.1520    37.5230    25.9610 ca         1 1OK      -0.142300
      8 C23          7.5750    38.8310    24.3260 c          1 1OK       0.621100
      9 C24          5.4840    36.6770    25.0530 ca         1 1OK      -0.152000
     10 C11          8.1620    35.2980    30.2680 ca         1 1OK      -0.218000
     11 C12          8.4040    35.0570    28.9080 ca         1 1OK       0.065000
     12 C34          0.0080    36.1280    27.6580 c3         1 1OK      -0.105100
     13 C27          4.1660    37.5420    27.3790 ca         1 1OK      -0.174000
     14 C33          1.4940    36.4170    27.9410 c3         1 1OK       0.172300
     15 N1           6.8340    39.9750    24.3750 ns         1 1OK      -0.556300
     16 S2           6.2330    40.8230    23.0700 sy         1 1OK       1.199300
     17 C3           5.2030    39.6190    22.2090 ca         1 1OK      -0.320500
     18 C4           3.9480    39.2630    22.7470 ca         1 1OK      -0.006500
     19 C5           3.1460    38.3130    22.0910 ca         1 1OK      -0.132000
     20 C6           3.5890    37.7150    20.9000 ca         1 1OK      -0.038000
     21 C7           4.8440    38.0590    20.3690 ca         1 1OK      -0.132000
     22 C8           5.6540    39.0070    21.0190 ca         1 1OK      -0.006500
     23 N9           8.5320    32.9640    30.8030 nb         1 1OK      -0.768000
     24 C10          8.2360    34.2290    31.1760 ca         1 1OK       0.382900
     25 C14          8.7610    32.7560    29.5130 ca         1 1OK       0.619900
     26 N19          9.0230    31.4590    29.3140 nv         1 1OK      -1.052900
     27 N20          8.5110    36.8320    25.6500 nu         1 1OK      -0.953200
     28 C25          4.1560    36.2600    25.2980 ca         1 1OK       0.123100
     29 C26          3.4940    36.6890    26.4740 ca         1 1OK       0.136100
     30 C28          5.4840    37.9530    27.1210 ca         1 1OK      -0.101000
     31 O29          2.1870    36.2700    26.6870 os         1 1OK      -0.341100
     32 O30          3.4760    35.4390    24.4120 os         1 1OK      -0.335100
     33 C31          4.0930    34.9050    23.2290 c3         1 1OK       0.157600
     34 C32          3.0240    34.1030    22.4700 c3         1 1OK      -0.093100
     35 C35          2.0970    35.4220    28.9580 c3         1 1OK      -0.105100
     36 O36          8.1510    38.4590    23.3100 o          1 1OK      -0.543100
     37 O37          5.3620    41.8470    23.6560 o          1 1OK      -0.524500
     38 O38          7.3750    41.1790    22.2210 o          1 1OK      -0.524500
     39 H1           9.2200    32.4730    26.8090 ha         1 1OK       0.108000
     40 H2           9.0920    34.3050    25.1560 ha         1 1OK       0.114000
     41 H3           8.1060    37.1020    28.2850 ha         1 1OK       0.118000
     42 H4           7.8850    38.7010    26.4510 h1         1 1OK       0.084700
     43 H5           6.0100    36.3570    24.1580 ha         1 1OK       0.127000
     44 H6           7.9180    36.2940    30.6250 ha         1 1OK       0.120000
     45 H7          -0.5830    36.2190    28.5770 hc         1 1OK       0.048867
     46 H8          -0.3890    36.8410    26.9260 hc         1 1OK       0.048867
     47 H9          -0.1250    35.1140    27.2620 hc         1 1OK       0.048867
     48 H10          3.6830    37.9020    28.2810 ha         1 1OK       0.124000
     49 H11          1.5720    37.4430    28.3230 h1         1 1OK       0.038700
     50 H12          6.3220    40.1930    25.2130 hn         1 1OK       0.334500
     51 H13          3.5910    39.7150    23.6720 ha         1 1OK       0.137500
     52 H14          2.1800    38.0390    22.5090 ha         1 1OK       0.120000
     53 H15          2.9660    36.9800    20.3940 ha         1 1OK       0.123000
     54 H16          5.1910    37.5900    19.4510 ha         1 1OK       0.120000
     55 H17          6.6260    39.2570    20.5970 ha         1 1OK       0.137500
     56 H18          8.0510    34.3910    32.2380 h4         1 1OK       0.013100
     57 H19          8.8000    30.8700    30.1070 hn         1 1OK       0.468500
     58 H20          8.8210    31.0750    28.4000 hn         1 1OK       0.468500
     59 H21          8.8440    36.5600    24.7220 hn         1 1OK       0.497000
     60 H22          5.9830    38.6120    27.8290 ha         1 1OK       0.113000
     61 H23          4.9310    34.2460    23.4910 h1         1 1OK       0.036700
     62 H24          4.4660    35.7100    22.5840 h1         1 1OK       0.036700
     63 H25          3.4500    33.6770    21.5540 hc         1 1OK       0.048700
     64 H26          2.6450    33.2820    23.0890 hc         1 1OK       0.048700
     65 H27          2.1840    34.7500    22.1900 hc         1 1OK       0.048700
     66 H28          1.5450    35.4620    29.9040 hc         1 1OK       0.048867
     67 H29          2.0460    34.3960    28.5750 hc         1 1OK       0.048867
     68 H30          3.1460    35.6580    29.1730 hc         1 1OK       0.048867
@<TRIPOS>BOND
     1     1     2 ar  
     2     1    11 ar  
     3     1    25 ar  
     4     2     3 ar  
     5     2    39 1   
     6     3     4 ar  
     7     3    40 1   
     8     4     5 ar  
     9     4    27 1   
    10     5    11 ar  
    11     5    41 1   
    12     6     7 1   
    13     6     8 1   
    14     6    27 1   
    15     6    42 1   
    16     7     9 ar  
    17     7    30 ar  
    18     8    15 1   
    19     8    36 2   
    20     9    28 ar  
    21     9    43 1   
    22    10    11 ar  
    23    10    24 ar  
    24    10    44 1   
    25    12    14 1   
    26    12    45 1   
    27    12    46 1   
    28    12    47 1   
    29    13    29 ar  
    30    13    30 ar  
    31    13    48 1   
    32    14    31 1   
    33    14    35 1   
    34    14    49 1   
    35    15    16 1   
    36    15    50 1   
    37    16    17 1   
    38    16    37 2   
    39    16    38 2   
    40    17    18 ar  
    41    17    22 ar  
    42    18    19 ar  
    43    18    51 1   
    44    19    20 ar  
    45    19    52 1   
    46    20    21 ar  
    47    20    53 1   
    48    21    22 ar  
    49    21    54 1   
    50    22    55 1   
    51    23    24 ar  
    52    23    25 ar  
    53    24    56 1   
    54    25    26 1   
    55    26    57 1   
    56    26    58 1   
    57    27    59 1   
    58    28    29 ar  
    59    28    32 1   
    60    29    31 1   
    61    30    60 1   
    62    32    33 1   
    63    33    34 1   
    64    33    61 1   
    65    33    62 1   
    66    34    63 1   
    67    34    64 1   
    68    34    65 1   
    69    35    66 1   
    70    35    67 1   
    71    35    68 1   
@<TRIPOS>SUBSTRUCTURE
     1 1OK         1 TEMP              0 ****  ****    0 ROOT
