@<TRIPOS>MOLECULE
1OK
   68    71     1     0     0
SMALL
abcg2


@<TRIPOS>ATOM
      1 C13          9.2370    33.6700    28.3650 ca         1 1OK      -0.165000
      2 C18          9.6930    33.5730    27.0290 ca         1 1OK      -0.036000
      3 C17          9.4560    34.5730    26.1280 ca         1 1OK      -0.180000
      4 C16          8.7490    35.7470    26.5060 ca         1 1OK       0.345000
      5 C15          8.3030    35.8670    27.8130 ca         1 1OK      -0.198000
      6 C21          7.6160    37.7970    25.7150 c3         1 1OK       0.203800
      7 C22          6.1680    37.3600    25.9260 ca         1 1OK      -0.142300
      8 C23          7.6050    38.6000    24.4150 c          1 1OK       0.621100
      9 C24          5.6230    36.3880    25.0840 ca         1 1OK      -0.152000
     10 C11          8.1080    34.9450    30.1050 ca         1 1OK      -0.218000
     11 C12          8.5410    34.8470    28.7550 ca         1 1OK       0.065000
     12 C34         -0.1330    36.8390    26.2460 c3         1 1OK      -0.105100
     13 C27          4.0220    37.6160    26.9940 ca         1 1OK      -0.174000
     14 C33          1.1980    36.9740    26.9620 c3         1 1OK       0.172300
     15 N1           7.0640    39.8670    24.5430 ns         1 1OK      -0.556300
     16 S2           6.2090    40.6350    23.3120 sy         1 1OK       1.199300
     17 C3           4.8700    39.5350    22.9880 ca         1 1OK      -0.320500
     18 C4           3.7760    39.5470    23.8510 ca         1 1OK      -0.006500
     19 C5           2.7350    38.6610    23.6230 ca         1 1OK      -0.132000
     20 C6           2.7940    37.7740    22.5520 ca         1 1OK      -0.038000
     21 C7           3.8940    37.7690    21.7020 ca         1 1OK      -0.132000
     22 C8           4.9470    38.6510    21.9160 ca         1 1OK      -0.006500
     23 N9           9.0220    32.7730    30.6050 nb         1 1OK      -0.768000
     24 C10          8.3760    33.9130    30.9580 ca         1 1OK       0.382900
     25 C14          9.4370    32.6500    29.3520 ca         1 1OK       0.619900
     26 N19         10.1230    31.5010    29.0410 nv         1 1OK      -1.052900
     27 N20          8.5660    36.7260    25.5590 nu         1 1OK      -0.953200
     28 C25          4.2880    36.0360    25.1830 ca         1 1OK       0.123100
     29 C26          3.4650    36.6670    26.1470 ca         1 1OK       0.136100
     30 C28          5.3680    37.9660    26.8770 ca         1 1OK      -0.101000
     31 O29          2.1640    36.2880    26.1330 os         1 1OK      -0.341100
     32 O30          3.6740    35.1280    24.3860 os         1 1OK      -0.335100
     33 C31          4.4390    34.5110    23.3420 c3         1 1OK       0.157600
     34 C32          3.4980    33.6470    22.5360 c3         1 1OK      -0.093100
     35 C35          1.1790    36.3700    28.3570 c3         1 1OK      -0.105100
     36 O36          7.9540    38.1330    23.3520 o          1 1OK      -0.543100
     37 O37          5.7160    41.8320    23.9410 o          1 1OK      -0.524500
     38 O38          7.0530    40.7250    22.1540 o          1 1OK      -0.524500
     39 H1          10.2450    32.7040    26.7000 ha         1 1OK       0.108000
     40 H2           9.8090    34.4830    25.1070 ha         1 1OK       0.114000
     41 H3           7.7640    36.7470    28.1350 ha         1 1OK       0.118000
     42 H4           7.9060    38.4550    26.5400 h1         1 1OK       0.084700
     43 H5           6.2510    35.9220    24.3400 ha         1 1OK       0.127000
     44 H6           7.5770    35.8250    30.4450 ha         1 1OK       0.120000
     45 H7          -0.9140    37.3410    26.8190 hc         1 1OK       0.048867
     46 H8          -0.0840    37.2910    25.2540 hc         1 1OK       0.048867
     47 H9          -0.4040    35.7870    26.1390 hc         1 1OK       0.048867
     48 H10          3.4170    38.1000    27.7450 ha         1 1OK       0.124000
     49 H11          1.4730    38.0300    27.0080 h1         1 1OK       0.038700
     50 H12          6.7420    40.1470    25.4630 hn         1 1OK       0.334500
     51 H13          3.7440    40.2340    24.6850 ha         1 1OK       0.137500
     52 H14          1.8810    38.6570    24.2860 ha         1 1OK       0.120000
     53 H15          1.9830    37.0770    22.3860 ha         1 1OK       0.123000
     54 H16          3.9380    37.0760    20.8720 ha         1 1OK       0.120000
     55 H17          5.8080    38.6570    21.2650 ha         1 1OK       0.137500
     56 H18          8.0610    33.9650    31.9950 h4         1 1OK       0.013100
     57 H19         10.0290    30.7580    29.7180 hn         1 1OK       0.468500
     58 H20         10.1220    31.1870    28.0850 hn         1 1OK       0.468500
     59 H21          8.7510    36.4730    24.5990 hn         1 1OK       0.497000
     60 H22          5.7830    38.7160    27.5390 ha         1 1OK       0.113000
     61 H23          5.2450    33.9190    23.7870 h1         1 1OK       0.036700
     62 H24          4.8880    35.2880    22.7180 h1         1 1OK       0.036700
     63 H25          4.0510    33.1510    21.7370 hc         1 1OK       0.048700
     64 H26          3.0380    32.8820    23.1650 hc         1 1OK       0.048700
     65 H27          2.7100    34.2530    22.0870 hc         1 1OK       0.048700
     66 H28          0.4600    36.9020    28.9820 hc         1 1OK       0.048867
     67 H29          0.8830    35.3200    28.3050 hc         1 1OK       0.048867
     68 H30          2.1570    36.4310    28.8350 hc         1 1OK       0.048867
@<TRIPOS>BOND
     1     1     2 ar  
     2     1    11 ar  
     3     1    25 ar  
     4     2     3 ar  
     5     2    39 1   
     6     3     4 ar  
     7     3    40 1   
     8     4     5 ar  
     9     4    27 1   
    10     5    11 ar  
    11     5    41 1   
    12     6     7 1   
    13     6     8 1   
    14     6    27 1   
    15     6    42 1   
    16     7     9 ar  
    17     7    30 ar  
    18     8    15 1   
    19     8    36 2   
    20     9    28 ar  
    21     9    43 1   
    22    10    11 ar  
    23    10    24 ar  
    24    10    44 1   
    25    12    14 1   
    26    12    45 1   
    27    12    46 1   
    28    12    47 1   
    29    13    29 ar  
    30    13    30 ar  
    31    13    48 1   
    32    14    31 1   
    33    14    35 1   
    34    14    49 1   
    35    15    16 1   
    36    15    50 1   
    37    16    17 1   
    38    16    37 2   
    39    16    38 2   
    40    17    18 ar  
    41    17    22 ar  
    42    18    19 ar  
    43    18    51 1   
    44    19    20 ar  
    45    19    52 1   
    46    20    21 ar  
    47    20    53 1   
    48    21    22 ar  
    49    21    54 1   
    50    22    55 1   
    51    23    24 ar  
    52    23    25 ar  
    53    24    56 1   
    54    25    26 1   
    55    26    57 1   
    56    26    58 1   
    57    27    59 1   
    58    28    29 ar  
    59    28    32 1   
    60    29    31 1   
    61    30    60 1   
    62    32    33 1   
    63    33    34 1   
    64    33    61 1   
    65    33    62 1   
    66    34    63 1   
    67    34    64 1   
    68    34    65 1   
    69    35    66 1   
    70    35    67 1   
    71    35    68 1   
@<TRIPOS>SUBSTRUCTURE
     1 1OK         1 TEMP              0 ****  ****    0 ROOT
