@<TRIPOS>MOLECULE
1OL
   34    33     1     0     0
SMALL
bcc


@<TRIPOS>ATOM
      1 C1           4.7760     0.6840    -0.8280 c3         1 1OL      -0.084100
      2 C2           3.6750     1.1500     1.3710 c3         1 1OL      -0.084100
      3 C3           3.7190     0.2150     0.1670 c3         1 1OL      -0.058700
      4 C4           2.3600     0.1030    -0.5280 c3         1 1OL      -0.059400
      5 N            1.6040    -1.8870     0.6610 n8         1 1OL      -0.908800
      6 C5           1.2430    -0.5210     0.3050 c3         1 1OL       0.130500
      7 C6          -0.1210    -0.3610    -0.3960 c3         1 1OL       0.104100
      8 O1          -0.1260    -0.9390    -1.6930 oh         1 1OL      -0.595800
      9 C7          -1.2710    -0.8870     0.4540 c3         1 1OL      -0.073400
     10 CA          -2.6600    -0.5240    -0.0590 c3         1 1OL      -0.194700
     11 C9          -3.7320    -1.2490     0.7570 c3         1 1OL      -0.061100
     12 C           -2.9540     0.9900    -0.0230 c          1 1OL       0.928600
     13 O           -2.3890     1.6670     0.8610 o          1 1OL      -0.842300
     14 H1           5.7580     0.7630    -0.3580 hc         1 1OL       0.025867
     15 H20          4.8660    -0.0050    -1.6700 hc         1 1OL       0.025867
     16 H3           4.5260     1.6680    -1.2330 hc         1 1OL       0.025867
     17 H4           4.6630     1.2500     1.8250 hc         1 1OL       0.025867
     18 H5           3.3450     2.1500     1.0750 hc         1 1OL       0.025867
     19 H6           2.9980     0.7950     2.1490 hc         1 1OL       0.025867
     20 H7           4.0000    -0.7830     0.5190 hc         1 1OL       0.054700
     21 H8           2.0440     1.1040    -0.8470 hc         1 1OL       0.043200
     22 H9           2.4780    -0.4800    -1.4480 hc         1 1OL       0.043200
     23 H10          0.8940    -2.3050     1.2470 hn         1 1OL       0.333300
     24 H11          1.1540     0.0400     1.2420 h1         1 1OL       0.070700
     25 H12         -0.2680     0.7120    -0.5530 h1         1 1OL       0.112700
     26 H13         -0.1860    -1.8950    -1.5930 ho         1 1OL       0.376000
     27 H14         -1.1920    -1.9800     0.5240 hc         1 1OL       0.020700
     28 H15         -1.1560    -0.5100     1.4730 hc         1 1OL       0.020700
     29 H16         -2.7530    -0.8620    -1.0960 hc         1 1OL       0.040700
     30 H17         -4.7350    -1.0050     0.4030 hc         1 1OL       0.012033
     31 H18         -3.6120    -2.3330     0.6940 hc         1 1OL       0.012033
     32 H19         -3.6740    -0.9740     1.8130 hc         1 1OL       0.012033
     33 OXT         -3.7790     1.4160    -0.8590 o          1 1OL      -0.842300
     34 H2           1.6700    -2.4620    -0.1710 hn         1 1OL       0.333300
@<TRIPOS>BOND
     1     1     3 1   
     2     1    14 1   
     3     1    15 1   
     4     1    16 1   
     5     2     3 1   
     6     2    17 1   
     7     2    18 1   
     8     2    19 1   
     9     3     4 1   
    10     3    20 1   
    11     4     6 1   
    12     4    21 1   
    13     4    22 1   
    14     5     6 1   
    15     5    23 1   
    16     5    34 1   
    17     6     7 1   
    18     6    24 1   
    19     7     8 1   
    20     7     9 1   
    21     7    25 1   
    22     8    26 1   
    23     9    10 1   
    24     9    27 1   
    25     9    28 1   
    26    10    11 1   
    27    10    12 1   
    28    10    29 1   
    29    11    30 1   
    30    11    31 1   
    31    11    32 1   
    32    12    13 1   
    33    12    33 1   
@<TRIPOS>SUBSTRUCTURE
     1 1OL         1 TEMP              0 ****  ****    0 ROOT
