@<TRIPOS>MOLECULE
1OM
   52    54     1     0     0
SMALL
No Charge or Current Charge


@<TRIPOS>ATOM
      1 O1          -0.4590    -5.8610     1.4790 oh         1 1OM      -0.536100
      2 C5          -0.3690    -4.6230     0.9180 ca         1 1OM       0.133100
      3 C4           0.3330    -4.4390    -0.2830 ca         1 1OM      -0.178000
      4 C3           0.4210    -3.1580    -0.8550 ca         1 1OM      -0.064500
      5 C2          -0.1930    -2.0510    -0.2340 ca         1 1OM      -0.109300
      6 C7          -0.8940    -2.2470     0.9770 ca         1 1OM      -0.064500
      7 C6          -0.9800    -3.5300     1.5460 ca         1 1OM      -0.178000
      8 C1          -0.0720    -0.6640    -0.8820 c3         1 1OM       0.104200
      9 C14         -1.2780     0.2360    -0.5810 ca         1 1OM      -0.129300
     10 C19         -1.2450     1.2060     0.4420 ca         1 1OM      -0.060250
     11 C18         -2.3690     2.0110     0.6960 ca         1 1OM      -0.189750
     12 C17         -3.5490     1.8660    -0.0590 ca         1 1OM       0.328000
     13 N2          -4.6830     2.6790     0.2010 nh         1 1OM      -0.822400
     14 C23         -4.5460     4.0350     0.7830 c3         1 1OM       0.213600
     15 C22         -6.0570     2.2100    -0.0980 c3         1 1OM       0.213600
     16 C16         -3.5780     0.8920    -1.0770 ca         1 1OM      -0.189750
     17 C15         -2.4570     0.0860    -1.3350 ca         1 1OM      -0.060250
     18 C8           1.2670     0.0180    -0.5690 ca         1 1OM      -0.129300
     19 C13          1.9590    -0.2180     0.6370 ca         1 1OM      -0.060250
     20 C12          3.1800     0.4280     0.8950 ca         1 1OM      -0.189750
     21 C11          3.7360     1.3250    -0.0380 ca         1 1OM       0.328000
     22 N1           4.9690     1.9770     0.2260 nh         1 1OM      -0.822400
     23 C21          5.2890     3.2970    -0.3660 c3         1 1OM       0.213600
     24 C20          5.9930     1.3680     1.1080 c3         1 1OM       0.213600
     25 C10          3.0380     1.5610    -1.2390 ca         1 1OM      -0.189750
     26 C9           1.8180     0.9160    -1.5020 ca         1 1OM      -0.060250
     27 H1           0.0230    -6.4960     0.9070 ho         1 1OM       0.462000
     28 H2           0.8130    -5.2800    -0.7770 ha         1 1OM       0.118000
     29 H3           0.9730    -3.0240    -1.7840 ha         1 1OM       0.118500
     30 H4          -1.3700    -1.4120     1.4850 ha         1 1OM       0.118500
     31 H5          -1.5220    -3.6730     2.4780 ha         1 1OM       0.118000
     32 H7          -0.3540     1.3390     1.0520 ha         1 1OM       0.112000
     33 H8          -2.3170     2.7410     1.4980 ha         1 1OM       0.110250
     34 H9          -3.6440     4.5310     0.3990 h1         1 1OM       0.033867
     35 H10         -5.4070     4.6630     0.5180 h1         1 1OM       0.033867
     36 H11         -4.4790     3.9780     1.8780 h1         1 1OM       0.033867
     37 H12         -6.1500     1.1350     0.1040 h1         1 1OM       0.033867
     38 H13         -6.7920     2.7300     0.5320 h1         1 1OM       0.033867
     39 H14         -6.3070     2.3970    -1.1510 h1         1 1OM       0.033867
     40 H15         -4.4680     0.7590    -1.6840 ha         1 1OM       0.110250
     41 H16         -2.5060    -0.6600    -2.1260 ha         1 1OM       0.112000
     42 H17          1.5540    -0.8960     1.3840 ha         1 1OM       0.112000
     43 H18          3.6830     0.2340     1.8370 ha         1 1OM       0.110250
     44 H19          5.7010     3.1760    -1.3770 h1         1 1OM       0.033867
     45 H20          4.3880     3.9230    -0.4230 h1         1 1OM       0.033867
     46 H21          6.0260     3.8330     0.2490 h1         1 1OM       0.033867
     47 H22          6.0140     0.2780     0.9790 h1         1 1OM       0.033867
     48 H23          6.9940     1.7500     0.8650 h1         1 1OM       0.033867
     49 H24          5.7790     1.5960     2.1610 h1         1 1OM       0.033867
     50 H25          3.4420     2.2390    -1.9840 ha         1 1OM       0.110250
     51 H26          1.2980     1.1180    -2.4370 ha         1 1OM       0.112000
     52 H27         -0.0810    -0.8340    -1.9660 hc         1 1OM       0.055700
@<TRIPOS>BOND
     1     1     2 1   
     2     1    27 1   
     3     2     3 ar  
     4     2     7 ar  
     5     3     4 ar  
     6     3    28 1   
     7     4     5 ar  
     8     4    29 1   
     9     5     6 ar  
    10     5     8 1   
    11     6     7 ar  
    12     6    30 1   
    13     7    31 1   
    14     8     9 1   
    15     8    18 1   
    16     8    52 1   
    17     9    10 ar  
    18     9    17 ar  
    19    10    11 ar  
    20    10    32 1   
    21    11    12 ar  
    22    11    33 1   
    23    12    13 1   
    24    12    16 ar  
    25    13    14 1   
    26    13    15 1   
    27    14    34 1   
    28    14    35 1   
    29    14    36 1   
    30    15    37 1   
    31    15    38 1   
    32    15    39 1   
    33    16    17 ar  
    34    16    40 1   
    35    17    41 1   
    36    18    19 ar  
    37    18    26 ar  
    38    19    20 ar  
    39    19    42 1   
    40    20    21 ar  
    41    20    43 1   
    42    21    22 1   
    43    21    25 ar  
    44    22    23 1   
    45    22    24 1   
    46    23    44 1   
    47    23    45 1   
    48    23    46 1   
    49    24    47 1   
    50    24    48 1   
    51    24    49 1   
    52    25    26 ar  
    53    25    50 1   
    54    26    51 1   
@<TRIPOS>SUBSTRUCTURE
     1 1OM         1 TEMP              0 ****  ****    0 ROOT
