@<TRIPOS>MOLECULE
1OM
   52    54     1     0     0
SMALL
bcc


@<TRIPOS>ATOM
      1 O1          -0.3660    -5.7790     1.4630 oh         1 1OM      -0.497100
      2 C5          -0.2910    -4.5680     0.8710 ca         1 1OM       0.133100
      3 C4           0.4170    -4.3480    -0.3090 ca         1 1OM      -0.196000
      4 C3           0.4530    -3.0790    -0.8650 ca         1 1OM      -0.082500
      5 C2          -0.2060    -2.0020    -0.2780 ca         1 1OM      -0.109300
      6 C7          -0.9130    -2.2420     0.8960 ca         1 1OM      -0.082500
      7 C6          -0.9580    -3.5040     1.4700 ca         1 1OM      -0.196000
      8 C1          -0.0920    -0.6250    -0.9030 c3         1 1OM       0.104200
      9 C14         -1.2760     0.2610    -0.5670 ca         1 1OM      -0.129300
     10 C19         -1.2310     1.2680     0.3890 ca         1 1OM      -0.078250
     11 C18         -2.3440     2.0340     0.7020 ca         1 1OM      -0.207750
     12 C17         -3.5790     1.8200     0.0660 ca         1 1OM       0.189600
     13 N2          -4.6930     2.5550     0.3880 nh         1 1OM      -0.684000
     14 C23         -4.5550     3.7160     1.2340 c3         1 1OM       0.213600
     15 C22         -5.8780     2.4390    -0.4280 c3         1 1OM       0.213600
     16 C16         -3.6170     0.8130    -0.9180 ca         1 1OM      -0.207750
     17 C15         -2.4940     0.0610    -1.2110 ca         1 1OM      -0.078250
     18 C8           1.2350     0.0340    -0.5880 ca         1 1OM      -0.129300
     19 C13          1.9260    -0.1780     0.5990 ca         1 1OM      -0.078250
     20 C12          3.1130     0.4800     0.8860 ca         1 1OM      -0.207750
     21 C11          3.6700     1.4020    -0.0160 ca         1 1OM       0.189600
     22 N1           4.8270     2.0860     0.2740 nh         1 1OM      -0.684000
     23 C21          5.4800     2.8410    -0.7690 c3         1 1OM       0.213600
     24 C20          5.6240     1.6730     1.4050 c3         1 1OM       0.213600
     25 C10          2.9840     1.5940    -1.2300 ca         1 1OM      -0.207750
     26 C9           1.7990     0.9280    -1.4920 ca         1 1OM      -0.078250
     27 H1           0.1570    -6.4240     0.9740 ho         1 1OM       0.423000
     28 H2           0.9400    -5.1640    -0.7950 ha         1 1OM       0.136000
     29 H3           1.0140    -2.9260    -1.7810 ha         1 1OM       0.136500
     30 H4          -1.4470    -1.4340     1.3790 ha         1 1OM       0.136500
     31 H5          -1.5140    -3.6670     2.3850 ha         1 1OM       0.136000
     32 H7          -0.3030     1.4800     0.9070 ha         1 1OM       0.130000
     33 H8          -2.2360     2.8040     1.4530 ha         1 1OM       0.128250
     34 H9          -3.9090     4.4880     0.8020 h1         1 1OM       0.033867
     35 H10         -5.5350     4.1550     1.4000 h1         1 1OM       0.033867
     36 H11         -4.1490     3.4520     2.2130 h1         1 1OM       0.033867
     37 H12         -6.2540     1.4150    -0.4420 h1         1 1OM       0.033867
     38 H13         -6.6630     3.0630    -0.0090 h1         1 1OM       0.033867
     39 H14         -5.7170     2.7500    -1.4670 h1         1 1OM       0.033867
     40 H15         -4.5260     0.6120    -1.4690 ha         1 1OM       0.128250
     41 H16         -2.5720    -0.7070    -1.9740 ha         1 1OM       0.130000
     42 H17          1.5430    -0.8800     1.3300 ha         1 1OM       0.130000
     43 H18          3.6020     0.2590     1.8250 ha         1 1OM       0.128250
     44 H19          5.8290     2.2170    -1.6010 h1         1 1OM       0.033867
     45 H20          4.8210     3.6070    -1.1800 h1         1 1OM       0.033867
     46 H21          6.3430     3.3550    -0.3520 h1         1 1OM       0.033867
     47 H22          6.0070     0.6500     1.3120 h1         1 1OM       0.033867
     48 H23          6.4760     2.3420     1.5040 h1         1 1OM       0.033867
     49 H24          5.0590     1.7350     2.3360 h1         1 1OM       0.033867
     50 H25          3.3710     2.2630    -1.9850 ha         1 1OM       0.128250
     51 H26          1.3040     1.1130    -2.4390 ha         1 1OM       0.130000
     52 H27         -0.1150    -0.7750    -1.9890 hc         1 1OM       0.055700
@<TRIPOS>BOND
     1     1     2 1   
     2     1    27 1   
     3     2     3 ar  
     4     2     7 ar  
     5     3     4 ar  
     6     3    28 1   
     7     4     5 ar  
     8     4    29 1   
     9     5     6 ar  
    10     5     8 1   
    11     6     7 ar  
    12     6    30 1   
    13     7    31 1   
    14     8     9 1   
    15     8    18 1   
    16     8    52 1   
    17     9    10 ar  
    18     9    17 ar  
    19    10    11 ar  
    20    10    32 1   
    21    11    12 ar  
    22    11    33 1   
    23    12    13 1   
    24    12    16 ar  
    25    13    14 1   
    26    13    15 1   
    27    14    34 1   
    28    14    35 1   
    29    14    36 1   
    30    15    37 1   
    31    15    38 1   
    32    15    39 1   
    33    16    17 ar  
    34    16    40 1   
    35    17    41 1   
    36    18    19 ar  
    37    18    26 ar  
    38    19    20 ar  
    39    19    42 1   
    40    20    21 ar  
    41    20    43 1   
    42    21    22 1   
    43    21    25 ar  
    44    22    23 1   
    45    22    24 1   
    46    23    44 1   
    47    23    45 1   
    48    23    46 1   
    49    24    47 1   
    50    24    48 1   
    51    24    49 1   
    52    25    26 ar  
    53    25    50 1   
    54    26    51 1   
@<TRIPOS>SUBSTRUCTURE
     1 1OM         1 TEMP              0 ****  ****    0 ROOT
