@<TRIPOS>MOLECULE
1ON
   18    19     1     0     0
SMALL
No Charge or Current Charge


@<TRIPOS>ATOM
      1 O10          2.1880    -1.4120    -0.7910 o          1 1ON      -0.514100
      2 C7           1.6010    -0.5280    -0.1790 c          1 1ON       0.587700
      3 C8           2.0670     0.8960     0.2060 c5         1 1ON      -0.187400
      4 C9           0.8850     1.8630    -0.1760 c5         1 1ON      -0.033100
      5 C6           0.1280    -0.4250    -0.0470 ca         1 1ON      -0.193600
      6 C1          -0.7990    -1.4780     0.0150 ca         1 1ON      -0.038000
      7 C2          -2.1680    -1.1600     0.1180 ca         1 1ON      -0.130000
      8 C5          -0.2760     0.9000    -0.0360 ca         1 1ON      -0.049300
      9 C4          -1.6370     1.2280     0.0600 ca         1 1ON      -0.114000
     10 C3          -2.5860     0.1890     0.1430 ca         1 1ON      -0.081000
     11 H1           2.1510     0.9150     1.2980 hc         1 1ON       0.075200
     12 H2           0.8160     2.7290     0.4930 hc         1 1ON       0.060700
     13 H3          -0.4700    -2.5150    -0.0110 ha         1 1ON       0.131000
     14 H4          -2.9060    -1.9570     0.1740 ha         1 1ON       0.118000
     15 H5          -1.9560     2.2680     0.0640 ha         1 1ON       0.118000
     16 H6          -3.6450     0.4270     0.2180 ha         1 1ON       0.114000
     17 H7           3.0350     1.1440    -0.2430 hc         1 1ON       0.075200
     18 H8           0.9760     2.2350    -1.2030 hc         1 1ON       0.060700
@<TRIPOS>BOND
     1     1     2 2   
     2     2     3 1   
     3     2     5 1   
     4     3     4 1   
     5     3    11 1   
     6     3    17 1   
     7     4     8 1   
     8     4    12 1   
     9     4    18 1   
    10     5     6 ar  
    11     5     8 ar  
    12     6     7 ar  
    13     6    13 1   
    14     7    10 ar  
    15     7    14 1   
    16     8     9 ar  
    17     9    10 ar  
    18     9    15 1   
    19    10    16 1   
@<TRIPOS>SUBSTRUCTURE
     1 1ON         1 TEMP              0 ****  ****    0 ROOT
