@<TRIPOS>MOLECULE
1ON
   18    19     1     0     0
SMALL
bcc


@<TRIPOS>ATOM
      1 O10          2.2230    -1.5170    -0.0500 o          1 1ON      -0.514100
      2 C7           1.5600    -0.5050    -0.0240 c          1 1ON       0.587700
      3 C8           2.0960     0.9160    -0.0020 c5         1 1ON      -0.187400
      4 C9           0.8710     1.8400    -0.0020 c5         1 1ON      -0.033100
      5 C6           0.0920    -0.4250    -0.0050 ca         1 1ON      -0.193600
      6 C1          -0.8280    -1.4700    -0.0020 ca         1 1ON      -0.056000
      7 C2          -2.1750    -1.1540     0.0170 ca         1 1ON      -0.148000
      8 C5          -0.3060     0.9050     0.0090 ca         1 1ON      -0.049300
      9 C4          -1.6590     1.2190     0.0280 ca         1 1ON      -0.132000
     10 C3          -2.5830     0.1830     0.0320 ca         1 1ON      -0.099000
     11 H1           2.7190     1.0480     0.8850 hc         1 1ON       0.075200
     12 H2           0.8540     2.4990     0.8680 hc         1 1ON       0.060700
     13 H3          -0.4980    -2.5010    -0.0140 ha         1 1ON       0.149000
     14 H4          -2.9190    -1.9400     0.0210 ha         1 1ON       0.136000
     15 H5          -1.9930     2.2500     0.0400 ha         1 1ON       0.136000
     16 H6          -3.6410     0.4110     0.0470 ha         1 1ON       0.132000
     17 H7           2.7460     1.0740    -0.8640 hc         1 1ON       0.075200
     18 H8           0.8450     2.4840    -0.8820 hc         1 1ON       0.060700
@<TRIPOS>BOND
     1     1     2 2   
     2     2     3 1   
     3     2     5 1   
     4     3     4 1   
     5     3    11 1   
     6     3    17 1   
     7     4     8 1   
     8     4    12 1   
     9     4    18 1   
    10     5     6 ar  
    11     5     8 ar  
    12     6     7 ar  
    13     6    13 1   
    14     7    10 ar  
    15     7    14 1   
    16     8     9 ar  
    17     9    10 ar  
    18     9    15 1   
    19    10    16 1   
@<TRIPOS>SUBSTRUCTURE
     1 1ON         1 TEMP              0 ****  ****    0 ROOT
