@<TRIPOS>MOLECULE
1OO
   45    48     1     0     0
SMALL
No Charge or Current Charge


@<TRIPOS>ATOM
      1 F33          2.2830     4.2470     0.9490 f          1 1OO      -0.107333
      2 C30          1.5100     3.2880     0.3910 c3         1 1OO       0.353300
      3 F31          0.3520     3.2590     1.0880 f          1 1OO      -0.107333
      4 F32          1.2010     3.7100    -0.8570 f          1 1OO      -0.107333
      5 C27          2.2120     1.9250     0.4080 ca         1 1OO      -0.138300
      6 C28          2.6330     1.2920    -0.7830 ca         1 1OO      -0.084000
      7 C29          3.2550     0.0320    -0.7420 ca         1 1OO      -0.019000
      8 C26          2.4470     1.2800     1.6410 ca         1 1OO      -0.084000
      9 C25          3.0710     0.0220     1.6870 ca         1 1OO      -0.019000
     10 C24          3.4740    -0.6100     0.4940 ca         1 1OO      -0.279500
     11 S21          4.1510    -2.2760     0.5350 sy         1 1OO       1.144600
     12 O22          4.8090    -2.6050    -0.7310 o          1 1OO      -0.519500
     13 O23          4.7540    -2.5480     1.8410 o          1 1OO      -0.519500
     14 N20          2.7780    -3.2400     0.5540 nu         1 1OO      -0.863100
     15 C19          1.6540    -2.9810    -0.2410 ca         1 1OO       0.166000
     16 C13          0.4950    -2.3820     0.3120 ca         1 1OO       0.206000
     17 F17          0.4530    -2.1100     1.6390 f          1 1OO      -0.160000
     18 C34          1.7010    -3.2230    -1.6270 ca         1 1OO      -0.019000
     19 C18          0.6120    -2.8710    -2.4450 ca         1 1OO      -0.168000
     20 C12         -0.5160    -2.2530    -1.8880 ca         1 1OO       0.227000
     21 F16         -1.5500    -1.9190    -2.6910 f          1 1OO      -0.157000
     22 C11         -0.5760    -1.9930    -0.5090 ca         1 1OO      -0.243600
     23 C10         -1.7480    -1.2910     0.0880 c          1 1OO       0.641900
     24 O15         -2.4670    -1.8540     0.9020 o          1 1OO      -0.496100
     25 C09         -1.9970     0.0920    -0.4010 cc         1 1OO      -0.236400
     26 C08         -1.1370     0.8320    -1.2070 cd         1 1OO      -0.082100
     27 C05         -3.0930     0.9670    -0.0730 ca         1 1OO      -0.079800
     28 C06         -2.8790     2.1790    -0.6970 ca         1 1OO       0.357500
     29 N07         -1.6950     2.1180    -1.4040 na         1 1OO      -0.305400
     30 N04         -3.7290     3.2190    -0.5920 nb         1 1OO      -0.662000
     31 C03         -4.8400     3.0310     0.1730 ca         1 1OO       0.369900
     32 C02         -5.1290     1.8180     0.8420 ca         1 1OO       0.040000
     33 Cl          -6.5900     1.6460     1.8140 cl         1 1OO      -0.183000
     34 C01         -4.2300     0.7440     0.7190 ca         1 1OO      -0.012000
     35 H1           2.4740     1.7640    -1.7500 ha         1 1OO       0.134000
     36 H2           3.5470    -0.4470    -1.6750 ha         1 1OO       0.144000
     37 H3           2.1340     1.7510     2.5710 ha         1 1OO       0.134000
     38 H4           3.2190    -0.4640     2.6500 ha         1 1OO       0.144000
     39 H5           2.5870    -3.2910     1.5480 hn         1 1OO       0.505000
     40 H6           2.5850    -3.6780    -2.0660 ha         1 1OO       0.153000
     41 H7           0.6480    -3.0650    -3.5140 ha         1 1OO       0.150000
     42 H8          -0.1800     0.5510    -1.6420 h4         1 1OO       0.220000
     43 H9          -1.3050     2.8750    -1.9510 hn         1 1OO       0.370000
     44 H10         -5.5210     3.8780     0.2510 h4         1 1OO       0.038100
     45 H11         -4.4180    -0.2040     1.2150 ha         1 1OO       0.156000
@<TRIPOS>BOND
     1     1     2 1   
     2     2     3 1   
     3     2     4 1   
     4     2     5 1   
     5     5     6 ar  
     6     5     8 ar  
     7     6     7 ar  
     8     6    35 1   
     9     7    10 ar  
    10     7    36 1   
    11     8     9 ar  
    12     8    37 1   
    13     9    10 ar  
    14     9    38 1   
    15    10    11 1   
    16    11    12 2   
    17    11    13 2   
    18    11    14 1   
    19    14    15 1   
    20    14    39 1   
    21    15    16 ar  
    22    15    18 ar  
    23    16    17 1   
    24    16    22 ar  
    25    18    19 ar  
    26    18    40 1   
    27    19    20 ar  
    28    19    41 1   
    29    20    21 1   
    30    20    22 ar  
    31    22    23 1   
    32    23    24 2   
    33    23    25 1   
    34    25    26 2   
    35    25    27 1   
    36    26    29 1   
    37    26    42 1   
    38    27    28 ar  
    39    27    34 ar  
    40    28    29 1   
    41    28    30 ar  
    42    29    43 1   
    43    30    31 ar  
    44    31    32 ar  
    45    31    44 1   
    46    32    33 1   
    47    32    34 ar  
    48    34    45 1   
@<TRIPOS>SUBSTRUCTURE
     1 1OO         1 TEMP              0 ****  ****    0 ROOT
