@<TRIPOS>MOLECULE
1OO
   45    48     1     0     0
SMALL
abcg2


@<TRIPOS>ATOM
      1 F33          1.4790     3.9840     1.7940 f          1 1OO      -0.107333
      2 C30          0.9810     3.1510     0.8750 c3         1 1OO       0.353300
      3 F31         -0.2560     2.8240     1.2760 f          1 1OO      -0.107333
      4 F32          0.8560     3.8400    -0.2610 f          1 1OO      -0.107333
      5 C27          1.8290     1.9240     0.7130 ca         1 1OO      -0.138300
      6 C28          2.1090     1.4200    -0.5480 ca         1 1OO      -0.084000
      7 C29          2.8330     0.2440    -0.6770 ca         1 1OO      -0.019000
      8 C26          2.2900     1.2710     1.8520 ca         1 1OO      -0.084000
      9 C25          3.0150     0.1000     1.7310 ca         1 1OO      -0.019000
     10 C24          3.2710    -0.4070     0.4640 ca         1 1OO      -0.279500
     11 S21          4.0830    -1.9770     0.3090 sy         1 1OO       1.144600
     12 O22          4.5510    -2.0960    -1.0580 o          1 1OO      -0.519500
     13 O23          4.9880    -2.1680     1.4250 o          1 1OO      -0.519500
     14 N20          2.8700    -3.1030     0.5160 nu         1 1OO      -0.863100
     15 C19          1.7270    -2.9820    -0.3060 ca         1 1OO       0.166000
     16 C13          0.5990    -2.3040     0.1380 ca         1 1OO       0.206000
     17 F17          0.5940    -1.7940     1.3700 f          1 1OO      -0.160000
     18 C34          1.7090    -3.5060    -1.5930 ca         1 1OO      -0.019000
     19 C18          0.6030    -3.3470    -2.4120 ca         1 1OO      -0.168000
     20 C12         -0.4870    -2.6550    -1.9240 ca         1 1OO       0.227000
     21 F16         -1.5630    -2.4890    -2.6970 f          1 1OO      -0.157000
     22 C11         -0.5190    -2.1160    -0.6490 ca         1 1OO      -0.243600
     23 C10         -1.7020    -1.3610    -0.1040 c          1 1OO       0.641900
     24 O15         -2.4310    -1.8820     0.7160 o          1 1OO      -0.496100
     25 C09         -1.8650    -0.0080    -0.5680 cc         1 1OO      -0.236400
     26 C08         -1.0970     0.6300    -1.5230 cd         1 1OO      -0.082100
     27 C05         -2.8390     0.9520    -0.1320 ca         1 1OO      -0.079800
     28 C06         -2.5910     2.1300    -0.8600 ca         1 1OO       0.357500
     29 N07         -1.5290     1.8910    -1.6940 na         1 1OO      -0.305400
     30 N04         -3.2510     3.2660    -0.7660 nb         1 1OO      -0.662000
     31 C03         -4.2400     3.2790     0.1110 ca         1 1OO       0.369900
     32 C02         -4.5760     2.1680     0.8910 ca         1 1OO       0.040000
     33 CL          -5.8920     2.3080     2.0050 cl         1 1OO      -0.183000
     34 C01         -3.8820     0.9770     0.7860 ca         1 1OO      -0.012000
     35 H1           1.7770     1.9250    -1.4440 ha         1 1OO       0.134000
     36 H2           3.0460    -0.1440    -1.6630 ha         1 1OO       0.144000
     37 H3           2.0880     1.6610     2.8410 ha         1 1OO       0.134000
     38 H4           3.3660    -0.4050     2.6210 ha         1 1OO       0.144000
     39 H5           2.6960    -3.3050     1.4950 hn         1 1OO       0.505000
     40 H6           2.5720    -4.0480    -1.9530 ha         1 1OO       0.153000
     41 H7           0.5880    -3.7590    -3.4110 ha         1 1OO       0.150000
     42 H8          -0.2650     0.2550    -2.0980 h4         1 1OO       0.220000
     43 H9          -1.1530     2.5500    -2.3590 hn         1 1OO       0.370000
     44 H10         -4.8000     4.2010     0.2110 h4         1 1OO       0.038100
     45 H11         -4.1410     0.1180     1.3890 ha         1 1OO       0.156000
@<TRIPOS>BOND
     1     1     2 1   
     2     2     3 1   
     3     2     4 1   
     4     2     5 1   
     5     5     6 ar  
     6     5     8 ar  
     7     6     7 ar  
     8     6    35 1   
     9     7    10 ar  
    10     7    36 1   
    11     8     9 ar  
    12     8    37 1   
    13     9    10 ar  
    14     9    38 1   
    15    10    11 1   
    16    11    12 2   
    17    11    13 2   
    18    11    14 1   
    19    14    15 1   
    20    14    39 1   
    21    15    16 ar  
    22    15    18 ar  
    23    16    17 1   
    24    16    22 ar  
    25    18    19 ar  
    26    18    40 1   
    27    19    20 ar  
    28    19    41 1   
    29    20    21 1   
    30    20    22 ar  
    31    22    23 1   
    32    23    24 2   
    33    23    25 1   
    34    25    26 2   
    35    25    27 1   
    36    26    29 1   
    37    26    42 1   
    38    27    28 ar  
    39    27    34 ar  
    40    28    29 1   
    41    28    30 ar  
    42    29    43 1   
    43    30    31 ar  
    44    31    32 ar  
    45    31    44 1   
    46    32    33 1   
    47    32    34 ar  
    48    34    45 1   
@<TRIPOS>SUBSTRUCTURE
     1 1OO         1 TEMP              0 ****  ****    0 ROOT
