@<TRIPOS>MOLECULE
1OQ
   28    29     1     0     0
SMALL
abcg2


@<TRIPOS>ATOM
      1 F4           2.5300    -1.8570     1.2110 f          1 1OQ      -0.103667
      2 C14          3.0550    -1.2250     0.1690 c3         1 1OQ       0.265700
      3 F2           4.2830    -0.8180     0.5160 f          1 1OQ      -0.103667
      4 F3           3.2090    -2.1220    -0.8150 f          1 1OQ      -0.103667
      5 C10          2.2090    -0.0630    -0.2870 ca         1 1OQ       0.248300
      6 N2           1.1240     0.1900     0.4160 nb         1 1OQ      -0.628000
      7 C11          2.6030     0.6750    -1.3950 ca         1 1OQ      -0.109000
      8 C12          1.8000     1.7370    -1.7700 ca         1 1OQ      -0.074000
      9 C13          0.6540     2.0130    -1.0380 ca         1 1OQ      -0.121000
     10 C9           0.3570     1.2070     0.0510 ca         1 1OQ       0.351300
     11 C7          -0.8980     1.3690     0.8890 c3         1 1OQ       0.006400
     12 C8          -1.4490     2.7180     0.8120 c1         1 1OQ       0.299900
     13 N1          -1.8990     3.7750     0.7550 n1         1 1OQ      -0.444000
     14 C4          -1.9440     0.3430     0.4930 ca         1 1OQ      -0.105300
     15 C3          -2.2840    -0.6760     1.3730 ca         1 1OQ      -0.062000
     16 C2          -3.2160    -1.6400     1.0150 ca         1 1OQ      -0.151500
     17 C5          -2.5460     0.3930    -0.7600 ca         1 1OQ      -0.062000
     18 C6          -3.4790    -0.5600    -1.1330 ca         1 1OQ      -0.151500
     19 C1          -3.7960    -1.5630    -0.2350 ca         1 1OQ       0.184000
     20 F1          -4.6990    -2.4880    -0.5910 f          1 1OQ      -0.174000
     21 H1           3.5010     0.4370    -1.9470 ha         1 1OQ       0.143000
     22 H2           2.0610     2.3450    -2.6250 ha         1 1OQ       0.132000
     23 H3           0.0160     2.8400    -1.3190 ha         1 1OQ       0.139000
     24 H4          -0.6200     1.2060     1.9340 hc         1 1OQ       0.105700
     25 H5          -1.8240    -0.7230     2.3520 ha         1 1OQ       0.122000
     26 H6          -3.4860    -2.4320     1.7020 ha         1 1OQ       0.136000
     27 H7          -2.2950     1.1790    -1.4640 ha         1 1OQ       0.122000
     28 H8          -3.9500    -0.5230    -2.1070 ha         1 1OQ       0.136000
@<TRIPOS>BOND
     1     1     2 1   
     2     2     3 1   
     3     2     4 1   
     4     2     5 1   
     5     5     6 ar  
     6     5     7 ar  
     7     6    10 ar  
     8     7     8 ar  
     9     7    21 1   
    10     8     9 ar  
    11     8    22 1   
    12     9    10 ar  
    13     9    23 1   
    14    10    11 1   
    15    11    12 1   
    16    11    14 1   
    17    11    24 1   
    18    12    13 3   
    19    14    15 ar  
    20    14    17 ar  
    21    15    16 ar  
    22    15    25 1   
    23    16    19 ar  
    24    16    26 1   
    25    17    18 ar  
    26    17    27 1   
    27    18    19 ar  
    28    18    28 1   
    29    19    20 1   
@<TRIPOS>SUBSTRUCTURE
     1 1OQ         1 TEMP              0 ****  ****    0 ROOT
