@<TRIPOS>MOLECULE
1OQ
   28    29     1     0     0
SMALL
No Charge or Current Charge


@<TRIPOS>ATOM
      1 F4           3.6050    -0.8070     1.9450 f          1 1OQ      -0.103667
      2 C14          3.8080    -0.5570     0.6280 c3         1 1OQ       0.265700
      3 F2           4.8940     0.2470     0.5500 f          1 1OQ      -0.103667
      4 F3           4.1540    -1.7350     0.0590 f          1 1OQ      -0.103667
      5 C10          2.5870     0.0720    -0.0720 ca         1 1OQ       0.248300
      6 N2           1.4670     0.3080     0.6640 nb         1 1OQ      -0.628000
      7 C11          2.6520     0.3870    -1.4450 ca         1 1OQ      -0.109000
      8 C12          1.5360     0.9580    -2.0770 ca         1 1OQ      -0.074000
      9 C13          0.3860     1.1970    -1.3100 ca         1 1OQ      -0.121000
     10 C9           0.3860     0.8610     0.0600 ca         1 1OQ       0.351300
     11 C7          -0.8390     1.0880     0.9430 c3         1 1OQ       0.006400
     12 C8          -1.0830     2.5280     1.1000 c1         1 1OQ       0.299900
     13 N1          -1.2910     3.6710     1.2010 n1         1 1OQ      -0.444000
     14 C4          -2.0710     0.3160     0.4380 ca         1 1OQ      -0.105300
     15 C3          -2.3110    -0.9840     0.9320 ca         1 1OQ      -0.062000
     16 C2          -3.4190    -1.7250     0.4860 ca         1 1OQ      -0.151500
     17 C5          -2.9600     0.8580    -0.5220 ca         1 1OQ      -0.062000
     18 C6          -4.0670     0.1140    -0.9650 ca         1 1OQ      -0.151500
     19 C1          -4.2940    -1.1740    -0.4600 ca         1 1OQ       0.184000
     20 F1          -5.3580    -1.8870    -0.8890 f          1 1OQ      -0.174000
     21 H1           3.5590     0.1890    -2.0100 ha         1 1OQ       0.143000
     22 H2           1.5630     1.2090    -3.1360 ha         1 1OQ       0.132000
     23 H3          -0.4930     1.6370    -1.7710 ha         1 1OQ       0.139000
     24 H4          -0.6070     0.7320     1.9530 hc         1 1OQ       0.105700
     25 H5          -1.6350    -1.4250     1.6630 ha         1 1OQ       0.122000
     26 H6          -3.5990    -2.7260     0.8710 ha         1 1OQ       0.136000
     27 H7          -2.8020     1.8540    -0.9310 ha         1 1OQ       0.122000
     28 H8          -4.7480     0.5330    -1.7010 ha         1 1OQ       0.136000
@<TRIPOS>BOND
     1     1     2 1   
     2     2     3 1   
     3     2     4 1   
     4     2     5 1   
     5     5     6 ar  
     6     5     7 ar  
     7     6    10 ar  
     8     7     8 ar  
     9     7    21 1   
    10     8     9 ar  
    11     8    22 1   
    12     9    10 ar  
    13     9    23 1   
    14    10    11 1   
    15    11    12 1   
    16    11    14 1   
    17    11    24 1   
    18    12    13 3   
    19    14    15 ar  
    20    14    17 ar  
    21    15    16 ar  
    22    15    25 1   
    23    16    19 ar  
    24    16    26 1   
    25    17    18 ar  
    26    17    27 1   
    27    18    19 ar  
    28    18    28 1   
    29    19    20 1   
@<TRIPOS>SUBSTRUCTURE
     1 1OQ         1 TEMP              0 ****  ****    0 ROOT
