@<TRIPOS>MOLECULE
1OR
   52    55     1     0     0
SMALL
No Charge or Current Charge


@<TRIPOS>ATOM
      1 P            4.5280    -1.4770     1.2890 p5         1 1OR       1.356200
      2 O1P          5.9170    -1.0520     1.9170 oh         1 1OR      -0.722400
      3 O2P          3.7550    -2.5130     2.0220 o          1 1OR      -0.563000
      4 C5           4.0140    -1.8510    -1.2500 c6         1 1OR       0.218600
      5 O5           5.0170    -1.8370    -0.2040 os         1 1OR      -0.597400
      6 C4           3.2830    -0.4900    -1.2400 c5         1 1OR       0.069300
      7 O4           2.0920    -0.4010    -2.0440 os         1 1OR      -0.431000
      8 C3           2.7260    -0.1350     0.1480 c5         1 1OR       0.151300
      9 O3           3.8380    -0.0340     1.0700 os         1 1OR      -0.529400
     10 C2           2.0440     1.2180    -0.2020 c5         1 1OR       0.151300
     11 O2           2.9820     2.2840    -0.4830 oh         1 1OR      -0.687000
     12 C1           1.2990     0.7110    -1.5130 c5         1 1OR       0.277300
     13 N1          -3.6000     2.0010    -0.1630 nb         1 1OR      -0.305000
     14 C10         -2.4760     2.7410    -0.2680 ca         1 1OR       0.188900
     15 N3          -1.2520     2.3000    -0.6260 nb         1 1OR      -0.244000
     16 C9          -1.1600     0.9880    -0.9070 ca         1 1OR       0.118500
     17 C7          -2.2410     0.1400    -0.8350 ca         1 1OR      -0.082600
     18 C6          -3.5010     0.6810    -0.4390 ca         1 1OR       0.452900
     19 N7          -1.8920    -1.1590    -1.2010 nc         1 1OR      -0.549100
     20 C8          -0.5820    -1.0470    -1.4770 cd         1 1OR       0.413700
     21 N9          -0.0740     0.2510    -1.3030 na         1 1OR      -0.311300
     22 N6          -4.7030    -0.0750    -0.3130 nh         1 1OR      -0.754300
     23 C26         -6.0330     0.5490    -0.5220 c3         1 1OR       0.224800
     24 C27         -6.7280     0.9800     0.7880 c3         1 1OR      -0.096400
     25 C28         -8.0980     1.6470     0.5530 c3         1 1OR      -0.087100
     26 C23         -4.6930    -1.4830     0.1510 c3         1 1OR       0.224800
     27 C24         -4.0700    -1.6700     1.5530 c3         1 1OR      -0.096400
     28 C25         -4.1090    -3.1320     2.0390 c3         1 1OR      -0.087100
     29 H1           6.1720    -0.5350     1.1320 ho         1 1OR       0.492000
     30 H2           4.5010    -2.0150    -2.2220 h1         1 1OR       0.072700
     31 H3           3.3050    -2.6740    -1.0730 h1         1 1OR       0.072700
     32 H4           4.0020     0.2660    -1.5880 h1         1 1OR       0.103700
     33 H5           1.9950    -0.8750     0.5090 h1         1 1OR       0.070700
     34 H6           1.3310     1.5140     0.5810 h1         1 1OR       0.088700
     35 H7           2.5180     3.1390    -0.3160 ho         1 1OR       0.522000
     36 H8           1.2370     1.5200    -2.2520 h2         1 1OR       0.109700
     37 H10          0.0560    -1.8610    -1.8020 h5         1 1OR       0.071800
     38 H11         -5.9400     1.4240    -1.1810 h1         1 1OR       0.060700
     39 H12         -6.6880    -0.1560    -1.0530 h1         1 1OR       0.060700
     40 H13         -6.8660     0.1040     1.4330 hc         1 1OR       0.048950
     41 H14         -6.0800     1.6790     1.3300 hc         1 1OR       0.048950
     42 H15         -8.5520     1.9350     1.5080 hc         1 1OR       0.034533
     43 H16         -7.9900     2.5500    -0.0610 hc         1 1OR       0.034533
     44 H17         -8.7820     0.9600     0.0410 hc         1 1OR       0.034533
     45 H18         -5.7220    -1.8650     0.1920 h1         1 1OR       0.060700
     46 H19         -4.1690    -2.1200    -0.5730 h1         1 1OR       0.060700
     47 H20         -3.0290    -1.3280     1.5440 hc         1 1OR       0.048950
     48 H21         -4.6080    -1.0400     2.2720 hc         1 1OR       0.048950
     49 H22         -3.6590    -3.2150     3.0360 hc         1 1OR       0.034533
     50 H23         -5.1420    -3.4950     2.0980 hc         1 1OR       0.034533
     51 H24         -3.5500    -3.7830     1.3550 hc         1 1OR       0.034533
     52 H9          -2.5650     3.8020    -0.0400 h5         1 1OR       0.045100
@<TRIPOS>BOND
     1     1     2 1   
     2     1     3 2   
     3     1     5 1   
     4     1     9 1   
     5     2    29 1   
     6     4     5 1   
     7     4     6 1   
     8     4    30 1   
     9     4    31 1   
    10     6     7 1   
    11     6     8 1   
    12     6    32 1   
    13     7    12 1   
    14     8     9 1   
    15     8    10 1   
    16     8    33 1   
    17    10    11 1   
    18    10    12 1   
    19    10    34 1   
    20    11    35 1   
    21    12    21 1   
    22    12    36 1   
    23    13    14 ar  
    24    13    18 ar  
    25    14    15 ar  
    26    14    52 1   
    27    15    16 ar  
    28    16    17 ar  
    29    16    21 1   
    30    17    18 ar  
    31    17    19 1   
    32    18    22 1   
    33    19    20 2   
    34    20    21 1   
    35    20    37 1   
    36    22    23 1   
    37    22    26 1   
    38    23    24 1   
    39    23    38 1   
    40    23    39 1   
    41    24    25 1   
    42    24    40 1   
    43    24    41 1   
    44    25    42 1   
    45    25    43 1   
    46    25    44 1   
    47    26    27 1   
    48    26    45 1   
    49    26    46 1   
    50    27    28 1   
    51    27    47 1   
    52    27    48 1   
    53    28    49 1   
    54    28    50 1   
    55    28    51 1   
@<TRIPOS>SUBSTRUCTURE
     1 1OR         1 TEMP              0 ****  ****    0 ROOT
