@<TRIPOS>MOLECULE
1OR
   52    55     1     0     0
SMALL
abcg2


@<TRIPOS>ATOM
      1 P            4.3860    -1.0360     1.4920 p5         1 1OR       1.356200
      2 O1P          5.8380    -0.5140     1.8390 oh         1 1OR      -0.722400
      3 O2P          3.6820    -1.8310     2.5140 o          1 1OR      -0.563000
      4 C5           3.5880    -1.8790    -0.9030 c6         1 1OR       0.218600
      5 O5           4.6250    -1.7830     0.0900 os         1 1OR      -0.597400
      6 C4           3.1120    -0.4610    -1.1410 c5         1 1OR       0.069300
      7 O4           2.0100    -0.3470    -2.0160 os         1 1OR      -0.431000
      8 C3           2.5880     0.1220     0.1610 c5         1 1OR       0.151300
      9 O3           3.6440     0.3400     1.0770 os         1 1OR      -0.529400
     10 C2           1.8450     1.3440    -0.3350 c5         1 1OR       0.151300
     11 O2           2.7700     2.3270    -0.6820 oh         1 1OR      -0.687000
     12 C1           1.1840     0.7110    -1.5910 c5         1 1OR       0.277300
     13 N1          -3.6490     1.9300    -0.7410 nb         1 1OR      -0.305000
     14 C10         -2.5760     2.6620    -1.0010 ca         1 1OR       0.188900
     15 N3          -1.3390     2.2510    -1.2150 nb         1 1OR      -0.244000
     16 C9          -1.2560     0.9250    -1.1440 ca         1 1OR       0.118500
     17 C7          -2.2830     0.0210    -0.8870 ca         1 1OR      -0.082600
     18 C6          -3.5660     0.5910    -0.6780 ca         1 1OR       0.452900
     19 N7          -1.7820    -1.2590    -0.8910 nc         1 1OR      -0.549100
     20 C8          -0.5150    -1.1310    -1.1390 cd         1 1OR       0.413700
     21 N9          -0.1320     0.1720    -1.3040 na         1 1OR      -0.311300
     22 N6          -4.6920    -0.0990    -0.4390 nh         1 1OR      -0.754300
     23 C26         -5.9380     0.6090    -0.1810 c3         1 1OR       0.224800
     24 C27         -6.0830     1.1280     1.2460 c3         1 1OR      -0.096400
     25 C28         -7.4110     1.8470     1.4400 c3         1 1OR      -0.087100
     26 C23         -4.6790    -1.5460    -0.2900 c3         1 1OR       0.224800
     27 C24         -4.2600    -2.0330     1.0940 c3         1 1OR      -0.096400
     28 C25         -4.1360    -3.5490     1.1230 c3         1 1OR      -0.087100
     29 H1           6.1730    -0.8250     2.6910 ho         1 1OR       0.492000
     30 H2           4.0410    -2.3310    -1.7830 h1         1 1OR       0.072700
     31 H3           2.7770    -2.5240    -0.5530 h1         1 1OR       0.072700
     32 H4           3.9560     0.1350    -1.5080 h1         1 1OR       0.103700
     33 H5           1.8460    -0.5600     0.6000 h1         1 1OR       0.070700
     34 H6           1.0900     1.7080     0.3700 h1         1 1OR       0.088700
     35 H7           2.2970     3.1380    -0.8950 ho         1 1OR       0.522000
     36 H8           1.0730     1.4550    -2.3850 h2         1 1OR       0.109700
     37 H10          0.1800    -1.9510    -1.2220 h5         1 1OR       0.071800
     38 H11         -6.0260     1.4410    -0.8800 h1         1 1OR       0.060700
     39 H12         -6.7500    -0.0840    -0.4060 h1         1 1OR       0.060700
     40 H13         -6.0050     0.2970     1.9520 hc         1 1OR       0.048950
     41 H14         -5.2580     1.8100     1.4640 hc         1 1OR       0.048950
     42 H15         -7.5010     2.2410     2.4520 hc         1 1OR       0.034533
     43 H16         -7.5120     2.6860     0.7490 hc         1 1OR       0.034533
     44 H17         -8.2560     1.1760     1.2710 hc         1 1OR       0.034533
     45 H18         -5.6850    -1.9040    -0.5150 h1         1 1OR       0.060700
     46 H19         -4.0190    -1.9800    -1.0400 h1         1 1OR       0.060700
     47 H20         -3.3030    -1.5820     1.3640 hc         1 1OR       0.048950
     48 H21         -4.9870    -1.7010     1.8390 hc         1 1OR       0.048950
     49 H22         -3.8550    -3.9050     2.1140 hc         1 1OR       0.034533
     50 H23         -5.0760    -4.0330     0.8520 hc         1 1OR       0.034533
     51 H24         -3.3730    -3.8860     0.4190 hc         1 1OR       0.034533
     52 H9          -2.7400     3.7340    -1.0390 h5         1 1OR       0.045100
@<TRIPOS>BOND
     1     1     2 1   
     2     1     3 2   
     3     1     5 1   
     4     1     9 1   
     5     2    29 1   
     6     4     5 1   
     7     4     6 1   
     8     4    30 1   
     9     4    31 1   
    10     6     7 1   
    11     6     8 1   
    12     6    32 1   
    13     7    12 1   
    14     8     9 1   
    15     8    10 1   
    16     8    33 1   
    17    10    11 1   
    18    10    12 1   
    19    10    34 1   
    20    11    35 1   
    21    12    21 1   
    22    12    36 1   
    23    13    14 ar  
    24    13    18 ar  
    25    14    15 ar  
    26    14    52 1   
    27    15    16 ar  
    28    16    17 ar  
    29    16    21 1   
    30    17    18 ar  
    31    17    19 1   
    32    18    22 1   
    33    19    20 2   
    34    20    21 1   
    35    20    37 1   
    36    22    23 1   
    37    22    26 1   
    38    23    24 1   
    39    23    38 1   
    40    23    39 1   
    41    24    25 1   
    42    24    40 1   
    43    24    41 1   
    44    25    42 1   
    45    25    43 1   
    46    25    44 1   
    47    26    27 1   
    48    26    45 1   
    49    26    46 1   
    50    27    28 1   
    51    27    47 1   
    52    27    48 1   
    53    28    49 1   
    54    28    50 1   
    55    28    51 1   
@<TRIPOS>SUBSTRUCTURE
     1 1OR         1 TEMP              0 ****  ****    0 ROOT
