@<TRIPOS>MOLECULE
1OS
   25    25     1     0     0
SMALL
No Charge or Current Charge


@<TRIPOS>ATOM
      1 O1           2.6930     0.8850    -1.5690 o          1 1OS      -0.905833
      2 P            2.7840    -0.1550    -0.5020 p5         1 1OS       1.247500
      3 O2           2.3440    -1.4800    -1.0300 o          1 1OS      -0.905833
      4 O3           4.1930    -0.2480    -0.0180 o          1 1OS      -0.905833
      5 C6           1.6760     0.3550     0.9750 c3         1 1OS      -0.122200
      6 N3           1.9380     1.6420     1.7490 n8         1 1OS      -0.999200
      7 C5           0.1940     0.2210     0.6110 ca         1 1OS       0.087700
      8 C7          -0.4280     1.1470    -0.2480 ca         1 1OS      -0.131500
      9 C8          -1.7900     1.0250    -0.5700 ca         1 1OS      -0.083500
     10 C2          -2.5750    -0.0200    -0.0290 ca         1 1OS      -0.247900
     11 C1          -4.0210    -0.1540    -0.4000 ce         1 1OS       0.687800
     12 N1          -4.8120    -0.8870     0.4060 nv         1 1OS      -1.078200
     13 N2          -4.5630     0.4700    -1.3620 n2         1 1OS      -0.863100
     14 C3          -1.9400    -0.9570     0.8230 ca         1 1OS      -0.083500
     15 C4          -0.5760    -0.8310     1.1420 ca         1 1OS      -0.131500
     16 H3           1.9080    -0.4580     1.6760 h1         1 1OS       0.048700
     17 H4           2.9380     1.6880     1.9880 hn         1 1OS       0.383000
     18 H5           1.8150     2.4430     1.1150 hn         1 1OS       0.383000
     19 H7           0.1500     1.9650    -0.6700 ha         1 1OS       0.125000
     20 H8          -2.2360     1.7570    -1.2390 ha         1 1OS       0.084000
     21 H9          -4.3990    -1.1120     1.3030 hn         1 1OS       0.439000
     22 H10         -5.7900    -0.6280     0.4250 hn         1 1OS       0.439000
     23 H11         -5.5130     0.1040    -1.4820 hn         1 1OS       0.324400
     24 H12         -2.4920    -1.7950     1.2400 ha         1 1OS       0.084000
     25 H13         -0.1140    -1.5600     1.8030 ha         1 1OS       0.125000
@<TRIPOS>BOND
     1     1     2 1   
     2     2     3 1   
     3     2     4 1   
     4     2     5 1   
     5     5     6 1   
     6     5     7 1   
     7     5    16 1   
     8     6    17 1   
     9     6    18 1   
    10     7     8 ar  
    11     7    15 ar  
    12     8     9 ar  
    13     8    19 1   
    14     9    10 ar  
    15     9    20 1   
    16    10    11 1   
    17    10    14 ar  
    18    11    12 1   
    19    11    13 2   
    20    12    21 1   
    21    12    22 1   
    22    13    23 1   
    23    14    15 ar  
    24    14    24 1   
    25    15    25 1   
@<TRIPOS>SUBSTRUCTURE
     1 1OS         1 TEMP              0 ****  ****    0 ROOT
