@<TRIPOS>MOLECULE
1OS
   25    25     1     0     0
SMALL
abcg2


@<TRIPOS>ATOM
      1 O1           2.4250     0.3170    -1.5560 o          1 1OS      -0.905833
      2 P            2.6870    -0.4500    -0.2540 p5         1 1OS       1.247500
      3 O2           2.2080    -1.9050    -0.2660 o          1 1OS      -0.905833
      4 O3           4.1110    -0.2750     0.2950 o          1 1OS      -0.905833
      5 C6           1.6220     0.4570     1.0190 c3         1 1OS      -0.122200
      6 N3           2.0450     1.8560     1.1500 n8         1 1OS      -0.999200
      7 C5           0.1720     0.3420     0.6910 ca         1 1OS       0.087700
      8 C7          -0.5690     1.4050     0.1710 ca         1 1OS      -0.131500
      9 C8          -1.9050     1.2570    -0.1660 ca         1 1OS      -0.083500
     10 C2          -2.5620     0.0430     0.0150 ca         1 1OS      -0.247900
     11 C1          -3.9940    -0.0880    -0.3570 ce         1 1OS       0.687800
     12 N1          -4.6630    -1.1210     0.2420 nv         1 1OS      -1.078200
     13 N2          -4.4900     0.7140    -1.2220 n2         1 1OS      -0.863100
     14 C3          -1.8290    -1.0240     0.5370 ca         1 1OS      -0.083500
     15 C4          -0.4910    -0.8770     0.8590 ca         1 1OS      -0.131500
     16 H3           1.7900    -0.0280     1.9880 h1         1 1OS       0.048700
     17 H4           3.0100     1.8330     1.4600 hn         1 1OS       0.383000
     18 H5           2.1130     2.2350     0.2100 hn         1 1OS       0.383000
     19 H7          -0.1050     2.3740     0.0410 ha         1 1OS       0.125000
     20 H8          -2.4530     2.1000    -0.5660 ha         1 1OS       0.084000
     21 H9          -4.3590    -1.4170     1.1550 hn         1 1OS       0.439000
     22 H10         -5.6640    -1.1460     0.1280 hn         1 1OS       0.439000
     23 H11         -5.4810     0.5350    -1.3590 hn         1 1OS       0.324400
     24 H12         -2.2920    -1.9940     0.6770 ha         1 1OS       0.084000
     25 H13          0.0580    -1.7260     1.2420 ha         1 1OS       0.125000
@<TRIPOS>BOND
     1     1     2 1   
     2     2     3 1   
     3     2     4 1   
     4     2     5 1   
     5     5     6 1   
     6     5     7 1   
     7     5    16 1   
     8     6    17 1   
     9     6    18 1   
    10     7     8 ar  
    11     7    15 ar  
    12     8     9 ar  
    13     8    19 1   
    14     9    10 ar  
    15     9    20 1   
    16    10    11 1   
    17    10    14 ar  
    18    11    12 1   
    19    11    13 2   
    20    12    21 1   
    21    12    22 1   
    22    13    23 1   
    23    14    15 ar  
    24    14    24 1   
    25    15    25 1   
@<TRIPOS>SUBSTRUCTURE
     1 1OS         1 TEMP              0 ****  ****    0 ROOT
