@<TRIPOS>MOLECULE
1OT
   27    28     1     0     0
SMALL
No Charge or Current Charge


@<TRIPOS>ATOM
      1 O1          -2.7290     1.7970    -0.7500 o          1 1OT      -0.904167
      2 P           -3.2600     0.4260    -0.4970 p5         1 1OT       1.243500
      3 O2          -4.6880     0.5090    -0.0660 o          1 1OT      -0.904167
      4 O3          -3.1620    -0.4060    -1.7320 o          1 1OT      -0.904167
      5 C1          -2.2590    -0.4070     0.9080 c3         1 1OT      -0.118200
      6 N1          -2.6220    -1.7980     1.4170 n8         1 1OT      -1.000200
      7 C2          -0.7550    -0.2960     0.6410 ca         1 1OT       0.075700
      8 C10          0.0390     0.5800     1.4080 ca         1 1OT      -0.111000
      9 C9           1.4230     0.6810     1.1760 ca         1 1OT      -0.112500
     10 C5           2.0390    -0.0960     0.1720 ca         1 1OT      -0.104200
     11 C4           1.2450    -0.9760    -0.5930 ca         1 1OT      -0.112500
     12 C3          -0.1380    -1.0740    -0.3590 ca         1 1OT      -0.111000
     13 N2           3.4180    -0.0040    -0.0570 na         1 1OT       0.298000
     14 N3           4.0360     1.2270    -0.1000 nc         1 1OT      -0.518800
     15 C8           5.2800     0.8850    -0.3780 cd         1 1OT       0.200900
     16 C7           5.4470    -0.5130    -0.5190 cd         1 1OT      -0.277000
     17 C6           4.2290    -1.1000    -0.3180 cc         1 1OT      -0.181000
     18 H3          -2.4890     0.2770     1.7350 h1         1 1OT       0.051700
     19 H4          -3.6330    -1.8290     1.6020 hn         1 1OT       0.384500
     20 H5          -2.5070    -2.4740     0.6510 hn         1 1OT       0.384500
     21 H7          -0.4170     1.1840     2.1880 ha         1 1OT       0.130500
     22 H8           2.0150     1.3610     1.7840 ha         1 1OT       0.092000
     23 H9           1.6950    -1.5820    -1.3760 ha         1 1OT       0.092000
     24 H10         -0.7350    -1.7570    -0.9590 ha         1 1OT       0.130500
     25 H11          6.0320     1.6580    -0.4740 h4         1 1OT       0.010100
     26 H12          6.3750    -1.0240    -0.7500 ha         1 1OT       0.116000
     27 H13          3.8870    -2.1270    -0.3270 h4         1 1OT       0.148000
@<TRIPOS>BOND
     1     1     2 1   
     2     2     3 1   
     3     2     4 1   
     4     2     5 1   
     5     5     6 1   
     6     5     7 1   
     7     5    18 1   
     8     6    19 1   
     9     6    20 1   
    10     7     8 ar  
    11     7    12 ar  
    12     8     9 ar  
    13     8    21 1   
    14     9    10 ar  
    15     9    22 1   
    16    10    11 ar  
    17    10    13 1   
    18    11    12 ar  
    19    11    23 1   
    20    12    24 1   
    21    13    14 1   
    22    13    17 1   
    23    14    15 2   
    24    15    16 1   
    25    15    25 1   
    26    16    17 2   
    27    16    26 1   
    28    17    27 1   
@<TRIPOS>SUBSTRUCTURE
     1 1OT         1 TEMP              0 ****  ****    0 ROOT
