@<TRIPOS>MOLECULE
1OT
   27    28     1     0     0
SMALL
bcc


@<TRIPOS>ATOM
      1 O1          -2.6460     2.0280    -0.1040 o          1 1OT      -0.904167
      2 P           -3.1990     0.6060    -0.2470 p5         1 1OT       1.085700
      3 O2          -4.6480     0.4580     0.2410 o          1 1OT      -0.904167
      4 O3          -2.9320    -0.0450    -1.6110 o          1 1OT      -0.904167
      5 C1          -2.2280    -0.4740     0.9600 c3         1 1OT       0.039600
      6 N1          -2.7160    -1.8580     0.9320 n8         1 1OT      -0.889800
      7 C2          -0.7590    -0.4010     0.7040 ca         1 1OT       0.075700
      8 C10         -0.0470     0.7630     1.0060 ca         1 1OT      -0.129000
      9 C9           1.3090     0.8800     0.7610 ca         1 1OT      -0.130500
     10 C5           2.0040    -0.1770     0.1780 ca         1 1OT      -0.104200
     11 C4           1.3190    -1.3420    -0.1370 ca         1 1OT      -0.130500
     12 C3          -0.0400    -1.4460     0.1290 ca         1 1OT      -0.129000
     13 N2           3.3890    -0.0560    -0.0820 na         1 1OT       0.247300
     14 N3           4.0230     1.0890     0.1760 nc         1 1OT      -0.518800
     15 C8           5.2770     0.8870    -0.1710 cd         1 1OT       0.266200
     16 C7           5.4690    -0.4150    -0.6660 cd         1 1OT      -0.360300
     17 C6           4.2260    -0.9900    -0.5910 cc         1 1OT      -0.148300
     18 H3          -2.4110    -0.0830     1.9680 h1         1 1OT       0.051700
     19 H4          -3.6940    -1.8220     1.1980 hn         1 1OT       0.329300
     20 H5          -2.7500    -2.1400    -0.0440 hn         1 1OT       0.329300
     21 H7          -0.5720     1.6010     1.4440 ha         1 1OT       0.148500
     22 H8           1.8260     1.7920     1.0230 ha         1 1OT       0.110000
     23 H9           1.8210    -2.1870    -0.5890 ha         1 1OT       0.110000
     24 H10         -0.5350    -2.3770    -0.1110 ha         1 1OT       0.148500
     25 H11          6.0050     1.6750    -0.0560 h4         1 1OT       0.010100
     26 H12          6.3780    -0.8670    -1.0230 ha         1 1OT       0.134000
     27 H13          3.8990    -1.9780    -0.8630 h4         1 1OT       0.166000
@<TRIPOS>BOND
     1     1     2 1   
     2     2     3 1   
     3     2     4 1   
     4     2     5 1   
     5     5     6 1   
     6     5     7 1   
     7     5    18 1   
     8     6    19 1   
     9     6    20 1   
    10     7     8 ar  
    11     7    12 ar  
    12     8     9 ar  
    13     8    21 1   
    14     9    10 ar  
    15     9    22 1   
    16    10    11 ar  
    17    10    13 1   
    18    11    12 ar  
    19    11    23 1   
    20    12    24 1   
    21    13    14 1   
    22    13    17 1   
    23    14    15 2   
    24    15    16 1   
    25    15    25 1   
    26    16    17 2   
    27    16    26 1   
    28    17    27 1   
@<TRIPOS>SUBSTRUCTURE
     1 1OT         1 TEMP              0 ****  ****    0 ROOT
