@<TRIPOS>MOLECULE
1OU
   27    27     1     0     0
SMALL
bcc


@<TRIPOS>ATOM
      1 O1           2.9100     0.1320    -1.5390 o          1 1OU      -0.912833
      2 P            3.0020    -0.6200    -0.2020 p5         1 1OU       1.115700
      3 O2           2.2740    -1.9660    -0.1790 o          1 1OU      -0.912833
      4 O3           4.4210    -0.6790     0.3740 o          1 1OU      -0.912833
      5 C6           2.0300     0.4910     0.9750 c3         1 1OU       0.059600
      6 N4           2.6240     1.8230     0.9550 n8         1 1OU      -0.850800
      7 C5           0.5700     0.4480     0.6250 ca         1 1OU       0.007700
      8 C7          -0.2580    -0.5640     1.1070 ca         1 1OU      -0.111500
      9 C8          -1.6090    -0.6440     0.7960 ca         1 1OU      -0.168000
     10 C2          -2.1870     0.3080    -0.0470 ca         1 1OU       0.079600
     11 C3          -1.3650     1.3170    -0.5540 ca         1 1OU      -0.168000
     12 C4          -0.0200     1.3790    -0.2270 ca         1 1OU      -0.111500
     13 N3          -3.5340     0.3520    -0.4060 nu         1 1OU      -0.722600
     14 C1          -4.5490    -0.5320    -0.1420 c2         1 1OU       0.803100
     15 N1          -4.3510    -1.6460     0.4570 n2         1 1OU      -0.874100
     16 N2          -5.7570    -0.0960    -0.6530 nv         1 1OU      -0.970800
     17 H3           2.1440     0.0740     1.9840 h1         1 1OU       0.048700
     18 H4           2.8080     2.0710    -0.0100 hn         1 1OU       0.303300
     19 H5           1.9670     2.5110     1.3040 hn         1 1OU       0.303300
     20 H7           0.1650    -1.3170     1.7610 ha         1 1OU       0.132500
     21 H8          -2.2120    -1.4430     1.1980 ha         1 1OU       0.109000
     22 H9          -1.7870     2.0690    -1.2120 ha         1 1OU       0.109000
     23 H10          0.5730     2.1860    -0.6390 ha         1 1OU       0.132500
     24 H11         -3.7770     1.1290    -0.9990 hn         1 1OU       0.413800
     25 H12         -5.2300    -2.1330     0.5880 hn         1 1OU       0.345400
     26 H13         -5.9210     0.8990    -0.6420 hn         1 1OU       0.376800
     27 H14         -6.5610    -0.6030    -0.3190 hn         1 1OU       0.376800
@<TRIPOS>BOND
     1     1     2 1   
     2     2     3 1   
     3     2     4 1   
     4     2     5 1   
     5     5     6 1   
     6     5     7 1   
     7     5    17 1   
     8     6    18 1   
     9     6    19 1   
    10     7     8 ar  
    11     7    12 ar  
    12     8     9 ar  
    13     8    20 1   
    14     9    10 ar  
    15     9    21 1   
    16    10    11 ar  
    17    10    13 1   
    18    11    12 ar  
    19    11    22 1   
    20    12    23 1   
    21    13    14 1   
    22    13    24 1   
    23    14    15 2   
    24    14    16 1   
    25    15    25 1   
    26    16    26 1   
    27    16    27 1   
@<TRIPOS>SUBSTRUCTURE
     1 1OU         1 TEMP              0 ****  ****    0 ROOT
