@<TRIPOS>MOLECULE
1OU
   27    27     1     0     0
SMALL
No Charge or Current Charge


@<TRIPOS>ATOM
      1 O1           3.1020     0.0590    -1.7240 o          1 1OU      -0.912833
      2 P            3.0220    -0.6470    -0.4090 p5         1 1OU       1.273500
      3 O2           2.3180    -1.9540    -0.5740 o          1 1OU      -0.912833
      4 O3           4.4030    -0.8910     0.1080 o          1 1OU      -0.912833
      5 C6           2.0670     0.4490     0.8490 c3         1 1OU      -0.098200
      6 N4           2.5010     1.8700     1.1740 n8         1 1OU      -0.961200
      7 C5           0.5600     0.4260     0.5820 ca         1 1OU       0.007700
      8 C7          -0.3130    -0.2130     1.4860 ca         1 1OU      -0.093500
      9 C8          -1.7000    -0.2220     1.2530 ca         1 1OU      -0.150000
     10 C2          -2.2340     0.4030     0.1110 ca         1 1OU       0.218000
     11 C3          -1.3690     1.0530    -0.7850 ca         1 1OU      -0.150000
     12 C4           0.0190     1.0630    -0.5540 ca         1 1OU      -0.093500
     13 N3          -3.6070     0.4270    -0.1240 nu         1 1OU      -0.916200
     14 C1          -4.5050    -0.5370    -0.0880 c2         1 1OU       0.803100
     15 N1          -4.2440    -1.7540    -0.0200 n2         1 1OU      -0.874100
     16 N2          -5.5900     0.0180    -0.5650 nv         1 1OU      -1.081200
     17 H3           2.2360    -0.1260     1.7690 h1         1 1OU       0.048700
     18 H4           2.3960     2.4530     0.3350 hn         1 1OU       0.358500
     19 H5           1.8490     2.2820     1.8510 hn         1 1OU       0.358500
     20 H7           0.0830    -0.7000     2.3740 ha         1 1OU       0.114500
     21 H8          -2.3590    -0.7120     1.9640 ha         1 1OU       0.091000
     22 H9          -1.7680     1.5500    -1.6650 ha         1 1OU       0.091000
     23 H10          0.6750     1.5690    -1.2580 ha         1 1OU       0.114500
     24 H11         -3.8950     1.0940    -0.8240 hn         1 1OU       0.469000
     25 H12         -5.1040    -2.2720    -0.2210 hn         1 1OU       0.345400
     26 H13         -5.8020     0.8770    -0.0750 hn         1 1OU       0.432000
     27 H14         -6.3740    -0.6180    -0.6180 hn         1 1OU       0.432000
@<TRIPOS>BOND
     1     1     2 1   
     2     2     3 1   
     3     2     4 1   
     4     2     5 1   
     5     5     6 1   
     6     5     7 1   
     7     5    17 1   
     8     6    18 1   
     9     6    19 1   
    10     7     8 ar  
    11     7    12 ar  
    12     8     9 ar  
    13     8    20 1   
    14     9    10 ar  
    15     9    21 1   
    16    10    11 ar  
    17    10    13 1   
    18    11    12 ar  
    19    11    22 1   
    20    12    23 1   
    21    13    14 1   
    22    13    24 1   
    23    14    15 2   
    24    14    16 1   
    25    15    25 1   
    26    16    26 1   
    27    16    27 1   
@<TRIPOS>SUBSTRUCTURE
     1 1OU         1 TEMP              0 ****  ****    0 ROOT
