@<TRIPOS>MOLECULE
1OX
   33    36     1     0     0
SMALL
No Charge or Current Charge


@<TRIPOS>ATOM
      1 C1           4.2440     1.6870    -1.0280 ca         1 1OX      -0.138000
      2 C2           3.1410     2.1880    -0.2960 ca         1 1OX      -0.099000
      3 C3           4.4970     0.2980    -1.0810 ca         1 1OX      -0.050000
      4 C4           2.2830     1.3040     0.3890 ca         1 1OX      -0.103000
      5 C5           2.6370    -2.2850     0.4580 cc         1 1OX       0.420700
      6 C6           3.6310    -0.5640    -0.3930 ca         1 1OX       0.064400
      7 C7           2.5680    -0.0670     0.3110 ca         1 1OX      -0.059200
      8 C8          -4.0070     2.4570     0.3730 cc         1 1OX      -0.036000
      9 C9          -2.8640     2.0070     0.9880 cd         1 1OX      -0.143000
     10 C10         -4.5880     1.6860    -0.6730 cc         1 1OX      -0.180000
     11 C11         -1.0240    -1.5640    -0.1110 cc         1 1OX      -0.418200
     12 C12         -3.9990     0.5020    -1.0540 cd         1 1OX      -0.065000
     13 C13         -0.5400    -0.7430     0.8840 cd         1 1OX       0.196400
     14 C14         -2.2740     0.7630     0.5630 cd         1 1OX       0.098000
     15 C15         -2.2350    -1.2310    -0.8670 c          1 1OX       0.525000
     16 N17          3.6950    -1.9550    -0.3150 nd         1 1OX      -0.571100
     17 N18         -1.1710     0.3830     1.1940 nc         1 1OX      -0.364600
     18 N19          1.9340    -1.1460     0.8530 na         1 1OX      -0.173600
     19 N20         -2.8320    -0.0150    -0.4690 n          1 1OX       0.012200
     20 O21         -2.6740    -1.9510    -1.7550 o          1 1OX      -0.535000
     21 H1           4.9020     2.3750    -1.5540 ha         1 1OX       0.111000
     22 H2           2.9550     3.2600    -0.2620 ha         1 1OX       0.109000
     23 H3           5.3410    -0.0960    -1.6420 ha         1 1OX       0.127000
     24 H4           1.4330     1.6790     0.9540 ha         1 1OX       0.117000
     25 H5           2.3390    -3.2850     0.7500 h5         1 1OX       0.058800
     26 H7          -2.4110     2.5870     1.7860 ha         1 1OX       0.157000
     27 H8          -5.4920     2.0430    -1.1580 ha         1 1OX       0.139000
     28 H9          -0.5320    -2.4890    -0.3870 ha         1 1OX       0.216000
     29 H11         -4.3940    -0.1290    -1.8440 h4         1 1OX       0.173000
     30 C16          0.7120    -1.0570     1.6720 c3         1 1OX       0.126800
     31 H6          -4.4740     3.3920     0.6710 ha         1 1OX       0.132000
     32 H12          0.8660    -0.2940     2.4460 h1         1 1OX       0.075700
     33 H13          0.5660    -2.0140     2.1870 h1         1 1OX       0.075700
@<TRIPOS>BOND
     1     1     2 ar  
     2     1     3 ar  
     3     1    21 1   
     4     2     4 ar  
     5     2    22 1   
     6     3     6 ar  
     7     3    23 1   
     8     4     7 ar  
     9     4    24 1   
    10     5    16 2   
    11     5    18 1   
    12     5    25 1   
    13     6     7 ar  
    14     6    16 1   
    15     7    18 1   
    16     8     9 2   
    17     8    10 1   
    18     8    31 1   
    19     9    14 1   
    20     9    26 1   
    21    10    12 2   
    22    10    27 1   
    23    11    13 2   
    24    11    15 1   
    25    11    28 1   
    26    12    19 1   
    27    12    29 1   
    28    13    17 1   
    29    13    30 1   
    30    14    17 2   
    31    14    19 1   
    32    15    19 1   
    33    15    20 2   
    34    18    30 1   
    35    30    32 1   
    36    30    33 1   
@<TRIPOS>SUBSTRUCTURE
     1 1OX         1 TEMP              0 ****  ****    0 ROOT
