@<TRIPOS>MOLECULE
1OX
   33    36     1     0     0
SMALL
bcc


@<TRIPOS>ATOM
      1 C1           4.1750     2.2450    -0.0740 ca         1 1OX      -0.156000
      2 C2           3.2940     2.2040     1.0190 ca         1 1OX      -0.117000
      3 C3           4.2290     1.2120    -0.9930 ca         1 1OX      -0.068000
      4 C4           2.4440     1.1330     1.2250 ca         1 1OX      -0.121000
      5 C5           2.3180    -1.7100    -0.9170 cc         1 1OX       0.420700
      6 C6           3.3810     0.1210    -0.8000 ca         1 1OX       0.064400
      7 C7           2.5110     0.0960     0.3010 ca         1 1OX      -0.059200
      8 C8          -3.1840     2.3180    -1.0850 cc         1 1OX      -0.054000
      9 C9          -1.9650     1.8060    -0.7760 cd         1 1OX      -0.161000
     10 C10         -4.3480     1.5680    -0.7940 cc         1 1OX      -0.198000
     11 C11         -1.6470    -1.9150     0.9920 cc         1 1OX      -0.368200
     12 C12         -4.2260     0.3520    -0.2170 cd         1 1OX      -0.032300
     13 C13         -0.5610    -1.1310     0.6990 cd         1 1OX       0.196400
     14 C14         -1.8390     0.5320    -0.1680 cd         1 1OX       0.148700
     15 C15         -2.9580    -1.4700     0.7030 c          1 1OX       0.600500
     16 N17          3.2300    -1.0270    -1.5440 nd         1 1OX      -0.571100
     17 N18         -0.6410     0.0670     0.1260 nc         1 1OX      -0.364600
     18 N19          1.8500    -1.1010     0.2040 na         1 1OX      -0.144300
     19 N20         -2.9960    -0.1680     0.0950 n          1 1OX      -0.089200
     20 O21         -4.0050    -2.0610     0.9080 o          1 1OX      -0.610500
     21 H1           4.8200     3.1040    -0.1980 ha         1 1OX       0.129000
     22 H2           3.2760     3.0340     1.7120 ha         1 1OX       0.127000
     23 H3           4.9060     1.2450    -1.8370 ha         1 1OX       0.145000
     24 H4           1.7560     1.1170     2.0600 ha         1 1OX       0.135000
     25 H5           1.9460    -2.6790    -1.2170 h5         1 1OX       0.058800
     26 H7          -1.0480     2.3420    -0.9760 ha         1 1OX       0.175000
     27 H8          -5.3310     1.9500    -1.0240 ha         1 1OX       0.157000
     28 H9          -1.5320    -2.8900     1.4460 ha         1 1OX       0.166000
     29 H11         -5.0710    -0.2700     0.0280 h4         1 1OX       0.191000
     30 C16          0.8210    -1.6050     1.0730 c3         1 1OX       0.097500
     31 H6          -3.2690     3.2910    -1.5480 ha         1 1OX       0.150000
     32 H12          1.0380    -1.2910     2.0970 h1         1 1OX       0.075700
     33 H13          0.8600    -2.6940     1.0700 h1         1 1OX       0.075700
@<TRIPOS>BOND
     1     1     2 ar  
     2     1     3 ar  
     3     1    21 1   
     4     2     4 ar  
     5     2    22 1   
     6     3     6 ar  
     7     3    23 1   
     8     4     7 ar  
     9     4    24 1   
    10     5    16 2   
    11     5    18 1   
    12     5    25 1   
    13     6     7 ar  
    14     6    16 1   
    15     7    18 1   
    16     8     9 2   
    17     8    10 1   
    18     8    31 1   
    19     9    14 1   
    20     9    26 1   
    21    10    12 2   
    22    10    27 1   
    23    11    13 2   
    24    11    15 1   
    25    11    28 1   
    26    12    19 1   
    27    12    29 1   
    28    13    17 1   
    29    13    30 1   
    30    14    17 2   
    31    14    19 1   
    32    15    19 1   
    33    15    20 2   
    34    18    30 1   
    35    30    32 1   
    36    30    33 1   
@<TRIPOS>SUBSTRUCTURE
     1 1OX         1 TEMP              0 ****  ****    0 ROOT
