@<TRIPOS>MOLECULE
1OZ
   51    55     1     0     0
SMALL
abcg2


@<TRIPOS>ATOM
      1 N            5.6790    21.5410    54.2170 n2         1 1OZ      -0.605900
      2 CA           6.2260    22.1550    55.3920 c3         1 1OZ       0.221900
      3 C            5.0540    22.3980    56.3580 c          1 1OZ       0.546000
      4 O            4.8910    21.7410    57.3620 o          1 1OZ      -0.512000
      5 CAD          3.3730    20.4250    49.9380 ca         1 1OZ      -0.092000
      6 CAE          4.5630    19.9540    50.4810 ca         1 1OZ      -0.120000
      7 CAF          2.7290    21.5070    50.5200 ca         1 1OZ      -0.120000
      8 CAG          4.8490    25.9710    52.7270 ca         1 1OZ      -0.129000
      9 CAH          4.4580    26.4630    53.9670 ca         1 1OZ      -0.073000
     10 CAI         11.6940    17.5180    59.3200 ca         1 1OZ      -0.144000
     11 CAJ         12.0270    18.6220    60.1290 ca         1 1OZ      -0.084000
     12 CAK          5.1030    20.5600    51.6030 ca         1 1OZ      -0.073500
     13 CAL          3.2760    22.1240    51.6360 ca         1 1OZ      -0.073500
     14 CAM          5.0160    24.6110    52.5610 ca         1 1OZ      -0.059000
     15 CAN          4.2560    25.6010    55.0290 ca         1 1OZ      -0.140000
     16 CAO         10.7450    17.6250    58.3270 ca         1 1OZ      -0.053000
     17 CAP         11.4210    19.8490    59.9600 ca         1 1OZ      -0.129000
     18 CAQ          9.1120    19.3260    57.2280 cc         1 1OZ      -0.192200
     19 CAV          5.0270    22.2790    53.4070 ce         1 1OZ       0.557500
     20 CAX          4.4660    21.6550    52.1890 ca         1 1OZ      -0.145900
     21 CAY          8.9000    20.6480    57.5240 cd         1 1OZ      -0.135300
     22 CAZ          4.8160    23.7230    53.6210 ca         1 1OZ      -0.221900
     23 CBA          4.4430    24.2270    54.8740 ca         1 1OZ      -0.003000
     24 CBB         10.1090    18.8590    58.1300 ca         1 1OZ      -0.114800
     25 CBC         10.4610    19.9550    58.9520 ca         1 1OZ      -0.035200
     26 NAS          7.1850    21.2580    55.9600 ns         1 1OZ      -0.465900
     27 NAT          9.7140    21.0180    58.5590 na         1 1OZ      -0.185700
     28 NBE          4.1940    23.3790    55.9690 n          1 1OZ      -0.234400
     29 OAB          8.0190    22.8150    57.3590 o          1 1OZ      -0.622100
     30 H3           6.7160    23.1140    55.1760 h2         1 1OZ       0.095700
     31 H4           2.6140    22.7310    57.1780 h1         1 1OZ       0.050033
     32 H5           3.3390    24.2560    57.7030 h1         1 1OZ       0.050033
     33 H6           2.3040    24.2060    56.2660 h1         1 1OZ       0.050033
     34 H7           2.9520    19.9490    49.0620 ha         1 1OZ       0.115000
     35 H8           5.0730    19.1140    50.0270 ha         1 1OZ       0.116500
     36 H9           1.7990    21.8730    50.1060 ha         1 1OZ       0.116500
     37 H10          5.0190    26.6450    51.8980 ha         1 1OZ       0.123000
     38 H11          4.3190    27.5260    54.1120 ha         1 1OZ       0.120000
     39 H13         12.7760    18.5030    60.9010 ha         1 1OZ       0.110000
     40 H14          6.0310    20.1950    52.0240 ha         1 1OZ       0.125000
     41 H15          2.7590    22.9640    52.0830 ha         1 1OZ       0.125000
     42 H16          5.3150    24.2210    51.5960 ha         1 1OZ       0.127000
     43 H17          3.9660    26.0010    55.9920 ha         1 1OZ       0.127000
     44 H18         10.4930    16.7720    57.7080 ha         1 1OZ       0.114000
     45 H19         11.6790    20.6950    60.5840 ha         1 1OZ       0.117000
     46 H20          8.6240    18.7470    56.4590 ha         1 1OZ       0.204000
     47 H22          7.1040    20.2830    55.7130 hn         1 1OZ       0.342500
     48 H23          9.7380    21.9430    58.9580 hn         1 1OZ       0.371000
     49 CAA          3.0540    23.6630    56.8330 c3         1 1OZ       0.088300
     50 CAU          7.9990    21.6610    56.9500 c          1 1OZ       0.641300
     51 H12         12.1940    16.5730    59.4860 ha         1 1OZ       0.111000
@<TRIPOS>BOND
     1     1     2 1   
     2     1    19 2   
     3     2     3 1   
     4     2    26 1   
     5     2    30 1   
     6     3     4 2   
     7     3    28 1   
     8     5     6 ar  
     9     5     7 ar  
    10     5    34 1   
    11     6    12 ar  
    12     6    35 1   
    13     7    13 ar  
    14     7    36 1   
    15     8     9 ar  
    16     8    14 ar  
    17     8    37 1   
    18     9    15 ar  
    19     9    38 1   
    20    10    11 ar  
    21    10    16 ar  
    22    10    51 1   
    23    11    17 ar  
    24    11    39 1   
    25    12    20 ar  
    26    12    40 1   
    27    13    20 ar  
    28    13    41 1   
    29    14    22 ar  
    30    14    42 1   
    31    15    23 ar  
    32    15    43 1   
    33    16    24 ar  
    34    16    44 1   
    35    17    25 ar  
    36    17    45 1   
    37    18    21 2   
    38    18    24 1   
    39    18    46 1   
    40    19    20 1   
    41    19    22 1   
    42    21    27 1   
    43    21    50 1   
    44    22    23 ar  
    45    23    28 1   
    46    24    25 ar  
    47    25    27 1   
    48    26    47 1   
    49    26    50 1   
    50    27    48 1   
    51    28    49 1   
    52    29    50 2   
    53    31    49 1   
    54    32    49 1   
    55    33    49 1   
@<TRIPOS>SUBSTRUCTURE
     1 1OZ         1 TEMP              0 ****  ****    0 ROOT
