@<TRIPOS>MOLECULE
1OZ
   51    55     1     0     0
SMALL
No Charge or Current Charge


@<TRIPOS>ATOM
      1 N            5.8760    21.7340    54.3150 n2         1 1OZ      -0.605900
      2 CA           6.2180    22.3800    55.5830 c3         1 1OZ       0.221900
      3 C            4.9450    22.5860    56.4740 c          1 1OZ       0.546000
      4 O            4.7850    21.9820    57.5340 o          1 1OZ      -0.512000
      5 CAD          3.6450    20.1730    49.9940 ca         1 1OZ      -0.092000
      6 CAE          4.7790    19.7150    50.6830 ca         1 1OZ      -0.120000
      7 CAF          2.9810    21.3280    50.4350 ca         1 1OZ      -0.120000
      8 CAG          4.7450    26.0140    52.6400 ca         1 1OZ      -0.129000
      9 CAH          4.2010    26.5370    53.8190 ca         1 1OZ      -0.073000
     10 CAI         11.5200    17.2380    58.9910 ca         1 1OZ      -0.144000
     11 CAJ         12.1250    18.2240    59.8060 ca         1 1OZ      -0.084000
     12 CAK          5.2530    20.4140    51.8070 ca         1 1OZ      -0.073500
     13 CAL          3.4520    22.0290    51.5580 ca         1 1OZ      -0.073500
     14 CAM          5.0270    24.6440    52.5510 ca         1 1OZ      -0.059000
     15 CAN          3.9210    25.6840    54.8980 ca         1 1OZ      -0.140000
     16 CAO         10.4610    17.5810    58.1240 ca         1 1OZ      -0.053000
     17 CAP         11.6750    19.5610    59.7600 ca         1 1OZ      -0.129000
     18 CAQ          9.0110    19.5560    57.3440 cc         1 1OZ      -0.192200
     19 CAV          5.0870    22.3240    53.4720 ce         1 1OZ       0.557500
     20 CAX          4.6080    21.5930    52.2490 ca         1 1OZ      -0.145900
     21 CAY          9.0100    20.9060    57.7090 cd         1 1OZ      -0.135300
     22 CAZ          4.7440    23.7760    53.6290 ca         1 1OZ      -0.221900
     23 CBA          4.1260    24.2890    54.8010 ca         1 1OZ      -0.003000
     24 CBB         10.0410    18.9180    58.1050 ca         1 1OZ      -0.114800
     25 CBC         10.6210    19.8740    58.8890 ca         1 1OZ      -0.035200
     26 NAS          7.2010    21.5250    56.2360 ns         1 1OZ      -0.465900
     27 NAT         10.0250    21.1080    58.6830 na         1 1OZ      -0.185700
     28 NBE          3.9660    23.4930    55.9940 n          1 1OZ      -0.234400
     29 OAB          8.1490    23.1340    57.5300 o          1 1OZ      -0.622100
     30 H3           6.6840    23.3600    55.4150 h2         1 1OZ       0.095700
     31 H4           2.3530    22.7880    57.1850 h1         1 1OZ       0.050033
     32 H5           3.0670    24.3400    57.7170 h1         1 1OZ       0.050033
     33 H6           2.0090    24.2770    56.2760 h1         1 1OZ       0.050033
     34 H7           3.2780    19.6300    49.1250 ha         1 1OZ       0.115000
     35 H8           5.2910    18.8150    50.3480 ha         1 1OZ       0.116500
     36 H9           2.0950    21.6780    49.9100 ha         1 1OZ       0.116500
     37 H10          4.9700    26.6730    51.8040 ha         1 1OZ       0.123000
     38 H11          4.0130    27.6050    53.9060 ha         1 1OZ       0.120000
     39 H13         12.9410    17.9510    60.4720 ha         1 1OZ       0.110000
     40 H14          6.1320    20.0380    52.3270 ha         1 1OZ       0.125000
     41 H15          2.9090    22.9110    51.8920 ha         1 1OZ       0.125000
     42 H16          5.4790    24.2550    51.6400 ha         1 1OZ       0.127000
     43 H17          3.5380    26.1210    55.8170 ha         1 1OZ       0.127000
     44 H18          9.9860    16.8340    57.4920 ha         1 1OZ       0.114000
     45 H19         12.1340    20.3260    60.3820 ha         1 1OZ       0.117000
     46 H20          8.3580    19.0730    56.6210 ha         1 1OZ       0.204000
     47 H22          7.2220    20.5480    55.9880 hn         1 1OZ       0.342500
     48 H23         10.2630    21.9850    59.1360 hn         1 1OZ       0.371000
     49 CAA          2.7780    23.7410    56.8450 c3         1 1OZ       0.088300
     50 CAU          8.1020    21.9640    57.1720 c          1 1OZ       0.641300
     51 H12         11.8730    16.2100    59.0320 ha         1 1OZ       0.111000
@<TRIPOS>BOND
     1     1     2 1   
     2     1    19 2   
     3     2     3 1   
     4     2    26 1   
     5     2    30 1   
     6     3     4 2   
     7     3    28 1   
     8     5     6 ar  
     9     5     7 ar  
    10     5    34 1   
    11     6    12 ar  
    12     6    35 1   
    13     7    13 ar  
    14     7    36 1   
    15     8     9 ar  
    16     8    14 ar  
    17     8    37 1   
    18     9    15 ar  
    19     9    38 1   
    20    10    11 ar  
    21    10    16 ar  
    22    10    51 1   
    23    11    17 ar  
    24    11    39 1   
    25    12    20 ar  
    26    12    40 1   
    27    13    20 ar  
    28    13    41 1   
    29    14    22 ar  
    30    14    42 1   
    31    15    23 ar  
    32    15    43 1   
    33    16    24 ar  
    34    16    44 1   
    35    17    25 ar  
    36    17    45 1   
    37    18    21 2   
    38    18    24 1   
    39    18    46 1   
    40    19    20 1   
    41    19    22 1   
    42    21    27 1   
    43    21    50 1   
    44    22    23 ar  
    45    23    28 1   
    46    24    25 ar  
    47    25    27 1   
    48    26    47 1   
    49    26    50 1   
    50    27    48 1   
    51    28    49 1   
    52    29    50 2   
    53    31    49 1   
    54    32    49 1   
    55    33    49 1   
@<TRIPOS>SUBSTRUCTURE
     1 1OZ         1 TEMP              0 ****  ****    0 ROOT
