@<TRIPOS>MOLECULE
1P0
   52    54     1     0     0
SMALL
abcg2


@<TRIPOS>ATOM
      1 OAA         -4.7880    -1.9680    -3.2940 oh         1 1P0      -0.658667
      2 CAG         -4.0770    -2.2110    -2.1070 c3         1 1P0       0.144600
      3 CAJ         -4.2440    -0.9790    -1.2300 c3         1 1P0       0.072600
      4 NAZ         -3.5360    -1.1330     0.0230 na         1 1P0       0.119133
      5 CAD         -2.2570    -0.8210     0.3000 cc         1 1P0      -0.198667
      6 NAS         -4.1230    -1.6880     1.0660 nc         1 1P0      -0.200800
      7 NAP         -3.2630    -1.7370     2.0260 nd         1 1P0      -0.356333
      8 CAV         -2.0910    -1.2170     1.6030 cd         1 1P0       0.201300
      9 CAM         -0.8740    -1.1450     2.4610 c3         1 1P0       0.148833
     10 NAY         -0.0180    -0.0420     2.0670 n3         1 1P0      -0.749600
     11 CAO         -0.5490     1.2420     2.4880 c3         1 1P0       0.148833
     12 CAX          0.0480     2.3520     1.6920 cc         1 1P0       0.201300
     13 CAF          0.4380     2.3530     0.3770 cd         1 1P0      -0.198667
     14 NAR          0.2760     3.5860     2.1880 nc         1 1P0      -0.356333
     15 NAU          0.7730     4.3330     1.2610 nd         1 1P0      -0.200800
     16 NBB          0.8830     3.6030     0.1670 na         1 1P0       0.119133
     17 CAL          1.3670     4.1890    -1.0650 c3         1 1P0       0.072600
     18 CAI          0.2420     4.8880    -1.8140 c3         1 1P0       0.144600
     19 OAC          0.8010     5.4170    -2.9890 oh         1 1P0      -0.658667
     20 CAN          1.3530    -0.2340     2.5030 c3         1 1P0       0.148833
     21 CAW          2.0390    -1.2680     1.6790 cc         1 1P0       0.201300
     22 CAE          1.8270    -1.6070     0.3670 cd         1 1P0      -0.198667
     23 NAQ          3.0490    -2.0350     2.1420 nc         1 1P0      -0.356333
     24 NAT          3.4640    -2.8090     1.1980 nd         1 1P0      -0.200800
     25 NBA          2.7330    -2.5700     0.1250 na         1 1P0       0.119133
     26 CAK          2.9980    -3.2580    -1.1200 c3         1 1P0       0.072600
     27 CAH          3.9040    -2.4290    -2.0190 c3         1 1P0       0.144600
     28 OAB          4.1230    -3.1830    -3.1840 oh         1 1P0      -0.658667
     29 H1          -4.7790    -2.7710    -3.8230 ho         1 1P0       0.456000
     30 H2          -4.4580    -3.0870    -1.5680 h1         1 1P0       0.034367
     31 H3          -3.0090    -2.3810    -2.2930 h1         1 1P0       0.034367
     32 H4          -3.8570    -0.0930    -1.7300 h1         1 1P0       0.082533
     33 H5          -5.2950    -0.8100    -1.0000 h1         1 1P0       0.082533
     34 H6          -1.6030    -0.3490    -0.4120 h4         1 1P0       0.165333
     35 H7          -1.1740    -1.0950     3.5180 h1         1 1P0       0.061033
     36 H8          -0.3070    -2.0740     2.3530 h1         1 1P0       0.061033
     37 H10         -1.6310     1.2340     2.3310 h1         1 1P0       0.061033
     38 H11         -0.3970     1.4330     3.5610 h1         1 1P0       0.061033
     39 H12          0.4450     1.5890    -0.3820 h4         1 1P0       0.165333
     40 H13          2.1610     4.8920    -0.8160 h1         1 1P0       0.082533
     41 H14          1.7950     3.3920    -1.6700 h1         1 1P0       0.082533
     42 H15         -0.5550     4.1630    -2.0230 h1         1 1P0       0.034367
     43 H16         -0.1870     5.6670    -1.1720 h1         1 1P0       0.034367
     44 H17          0.1040     5.8540    -3.4860 ho         1 1P0       0.456000
     45 H18          1.8850     0.7140     2.3930 h1         1 1P0       0.061033
     46 H19          1.4280    -0.5010     3.5680 h1         1 1P0       0.061033
     47 H20          1.1230    -1.2650    -0.3720 h4         1 1P0       0.165333
     48 H21          3.4650    -4.2110    -0.8760 h1         1 1P0       0.082533
     49 H22          2.0460    -3.4580    -1.6110 h1         1 1P0       0.082533
     50 H23          3.4200    -1.4690    -2.2350 h1         1 1P0       0.034367
     51 H24          4.8360    -2.2110    -1.4830 h1         1 1P0       0.034367
     52 H25          4.6970    -2.6790    -3.7670 ho         1 1P0       0.456000
@<TRIPOS>BOND
     1     1     2 1   
     2     1    29 1   
     3     2     3 1   
     4     2    30 1   
     5     2    31 1   
     6     3     4 1   
     7     3    32 1   
     8     3    33 1   
     9     4     5 1   
    10     4     6 1   
    11     5     8 2   
    12     5    34 1   
    13     6     7 2   
    14     7     8 1   
    15     8     9 1   
    16     9    10 1   
    17     9    35 1   
    18     9    36 1   
    19    10    11 1   
    20    10    20 1   
    21    11    12 1   
    22    11    37 1   
    23    11    38 1   
    24    12    13 2   
    25    12    14 1   
    26    13    16 1   
    27    13    39 1   
    28    14    15 2   
    29    15    16 1   
    30    16    17 1   
    31    17    18 1   
    32    17    40 1   
    33    17    41 1   
    34    18    19 1   
    35    18    42 1   
    36    18    43 1   
    37    19    44 1   
    38    20    21 1   
    39    20    45 1   
    40    20    46 1   
    41    21    22 2   
    42    21    23 1   
    43    22    25 1   
    44    22    47 1   
    45    23    24 2   
    46    24    25 1   
    47    25    26 1   
    48    26    27 1   
    49    26    48 1   
    50    26    49 1   
    51    27    28 1   
    52    27    50 1   
    53    27    51 1   
    54    28    52 1   
@<TRIPOS>SUBSTRUCTURE
     1 1P0         1 TEMP              0 ****  ****    0 ROOT
