@<TRIPOS>MOLECULE
1P0
   52    54     1     0     0
SMALL
No Charge or Current Charge


@<TRIPOS>ATOM
      1 OAA         -5.7910    -2.2810    -2.9810 oh         1 1P0      -0.658667
      2 CAG         -4.9130    -2.4580    -1.8590 c3         1 1P0       0.144600
      3 CAJ         -4.7790    -1.1370    -1.0750 c3         1 1P0       0.072600
      4 NAZ         -3.8820    -1.2530     0.0830 na         1 1P0       0.119133
      5 CAD         -2.5220    -1.0780     0.1030 cc         1 1P0      -0.198667
      6 NAS         -4.3650    -1.5700     1.3170 nc         1 1P0      -0.200800
      7 NAP         -3.3370    -1.5980     2.1230 nd         1 1P0      -0.356333
      8 CAV         -2.1920    -1.2990     1.4100 cd         1 1P0       0.201300
      9 CAM         -0.8160    -1.2420     2.0470 c3         1 1P0       0.148833
     10 NAY         -0.0060    -0.0420     1.6770 n3         1 1P0      -0.749600
     11 CAO         -0.6400     1.2410     2.1120 c3         1 1P0       0.148833
     12 CAX         -0.0050     2.4880     1.5300 cc         1 1P0       0.201300
     13 CAF          0.3470     2.7170     0.2360 cd         1 1P0      -0.198667
     14 NAR          0.2950     3.5750     2.3050 nc         1 1P0      -0.356333
     15 NAU          0.8320     4.4930     1.5410 nd         1 1P0      -0.200800
     16 NBB          0.8750     3.9870     0.2670 na         1 1P0       0.119133
     17 CAL          1.4210     4.7590    -0.8580 c3         1 1P0       0.072600
     18 CAI          0.3400     5.5620    -1.6090 c3         1 1P0       0.144600
     19 OAC          0.9300     6.2860    -2.6990 oh         1 1P0      -0.658667
     20 CAN          1.4230    -0.1550     2.1030 c3         1 1P0       0.148833
     21 CAW          2.1840    -1.2980     1.4620 cc         1 1P0       0.201300
     22 CAE          2.2040    -1.6540     0.1490 cd         1 1P0      -0.198667
     23 NAQ          2.9760    -2.1390     2.1950 nc         1 1P0      -0.356333
     24 NAT          3.5010    -3.0240     1.3850 nd         1 1P0      -0.200800
     25 NBA          3.0390    -2.7460     0.1240 na         1 1P0       0.119133
     26 CAK          3.4320    -3.5480    -1.0430 c3         1 1P0       0.072600
     27 CAH          4.6670    -2.9790    -1.7680 c3         1 1P0       0.144600
     28 OAB          4.9970    -3.7970    -2.9010 oh         1 1P0      -0.658667
     29 H1          -5.8490    -3.1480    -3.4440 ho         1 1P0       0.456000
     30 H2          -5.3030    -3.2350    -1.1880 h1         1 1P0       0.034367
     31 H3          -3.9180    -2.7760    -2.1990 h1         1 1P0       0.034367
     32 H4          -4.3890    -0.3580    -1.7400 h1         1 1P0       0.082533
     33 H5          -5.7690    -0.8190    -0.7250 h1         1 1P0       0.082533
     34 H6          -1.9240    -0.8190    -0.7600 h4         1 1P0       0.165333
     35 H7          -0.9350    -1.2930     3.1380 h1         1 1P0       0.061033
     36 H8          -0.2950    -2.1600     1.7450 h1         1 1P0       0.061033
     37 H10         -1.6970     1.2610     1.8160 h1         1 1P0       0.061033
     38 H11         -0.6200     1.3150     3.2080 h1         1 1P0       0.061033
     39 H12          0.2700     2.1020    -0.6500 h4         1 1P0       0.165333
     40 H13          2.1860     5.4460    -0.4760 h1         1 1P0       0.082533
     41 H14          1.9060     4.0630    -1.5530 h1         1 1P0       0.082533
     42 H15         -0.4270     4.8690    -1.9810 h1         1 1P0       0.034367
     43 H16         -0.1440     6.2550    -0.9070 h1         1 1P0       0.034367
     44 H17          0.2050     6.7840    -3.1420 ho         1 1P0       0.456000
     45 H18          1.9680     0.7640     1.8500 h1         1 1P0       0.061033
     46 H19          1.4810    -0.2620     3.1950 h1         1 1P0       0.061033
     47 H20          1.7080    -1.2360    -0.7170 h4         1 1P0       0.165333
     48 H21          3.6430    -4.5720    -0.7110 h1         1 1P0       0.082533
     49 H22          2.5860    -3.5850    -1.7390 h1         1 1P0       0.082533
     50 H23          4.4530    -1.9510    -2.0890 h1         1 1P0       0.034367
     51 H24          5.5100    -2.9430    -1.0640 h1         1 1P0       0.034367
     52 H25          5.7910    -3.3980    -3.3250 ho         1 1P0       0.456000
@<TRIPOS>BOND
     1     1     2 1   
     2     1    29 1   
     3     2     3 1   
     4     2    30 1   
     5     2    31 1   
     6     3     4 1   
     7     3    32 1   
     8     3    33 1   
     9     4     5 1   
    10     4     6 1   
    11     5     8 2   
    12     5    34 1   
    13     6     7 2   
    14     7     8 1   
    15     8     9 1   
    16     9    10 1   
    17     9    35 1   
    18     9    36 1   
    19    10    11 1   
    20    10    20 1   
    21    11    12 1   
    22    11    37 1   
    23    11    38 1   
    24    12    13 2   
    25    12    14 1   
    26    13    16 1   
    27    13    39 1   
    28    14    15 2   
    29    15    16 1   
    30    16    17 1   
    31    17    18 1   
    32    17    40 1   
    33    17    41 1   
    34    18    19 1   
    35    18    42 1   
    36    18    43 1   
    37    19    44 1   
    38    20    21 1   
    39    20    45 1   
    40    20    46 1   
    41    21    22 2   
    42    21    23 1   
    43    22    25 1   
    44    22    47 1   
    45    23    24 2   
    46    24    25 1   
    47    25    26 1   
    48    26    27 1   
    49    26    48 1   
    50    26    49 1   
    51    27    28 1   
    52    27    50 1   
    53    27    51 1   
    54    28    52 1   
@<TRIPOS>SUBSTRUCTURE
     1 1P0         1 TEMP              0 ****  ****    0 ROOT
