@<TRIPOS>MOLECULE
1P3
   25    25     1     0     0
SMALL
No Charge or Current Charge


@<TRIPOS>ATOM
      1 C2           1.3740     0.0790     2.9320 c3         1 1P3      -0.085100
      2 C3           0.4730     0.3080     1.6900 c6         1 1P3      -0.085700
      3 C20          0.8470    -0.6530     0.5300 c6         1 1P3       0.094000
      4 C4          -1.0330     0.1670     2.0430 c6         1 1P3      -0.072400
      5 C5          -1.9180     0.3450     0.7850 c6         1 1P3      -0.098400
      6 N1          -0.0290    -0.4260    -0.6510 n          1 1P3      -0.409800
      7 C6          -1.4730    -0.6150    -0.3430 c6         1 1P3       0.101000
      8 C7          -0.4990     0.3610    -3.0240 c3         1 1P3      -0.176100
      9 C10          0.4610     0.1420    -1.8520 c          1 1P3       0.606100
     10 O11          1.6440     0.4320    -1.9760 o          1 1P3      -0.609100
     11 H2C1         2.4330     0.2180     2.6830 hc         1 1P3       0.036033
     12 H2C2         1.1290     0.7850     3.7350 hc         1 1P3       0.036033
     13 H2C3         1.2550    -0.9360     3.3310 hc         1 1P3       0.036033
     14 H3           0.6590     1.3380     1.3570 hc         1 1P3       0.058700
     15 H201         1.9050    -0.5180     0.2660 h1         1 1P3       0.060700
     16 H202         0.7300    -1.6950     0.8630 h1         1 1P3       0.060700
     17 H4C1        -1.2220    -0.8220     2.4860 hc         1 1P3       0.041200
     18 H4C2        -1.3150     0.9090     2.8030 hc         1 1P3       0.041200
     19 H5C1        -2.9710     0.1620     1.0370 hc         1 1P3       0.047700
     20 H5C2        -1.8540     1.3820     0.4290 hc         1 1P3       0.047700
     21 H6C1        -1.6300    -1.6540    -0.0180 h1         1 1P3       0.047700
     22 H6C2        -2.1090    -0.4610    -1.2240 h1         1 1P3       0.047700
     23 H7C1         0.0100     0.7370    -3.9180 hc         1 1P3       0.059033
     24 H7C2        -1.0380    -0.5700    -3.2310 hc         1 1P3       0.059033
     25 H7C3        -1.2970     1.0430    -2.7110 hc         1 1P3       0.059033
@<TRIPOS>BOND
     1     1     2 1   
     2     1    11 1   
     3     1    12 1   
     4     1    13 1   
     5     2     3 1   
     6     2     4 1   
     7     2    14 1   
     8     3     6 1   
     9     3    15 1   
    10     3    16 1   
    11     4     5 1   
    12     4    17 1   
    13     4    18 1   
    14     5     7 1   
    15     5    19 1   
    16     5    20 1   
    17     6     7 1   
    18     6     9 1   
    19     7    21 1   
    20     7    22 1   
    21     8     9 1   
    22     8    23 1   
    23     8    24 1   
    24     8    25 1   
    25     9    10 2   
@<TRIPOS>SUBSTRUCTURE
     1 1P3         1 TEMP              0 ****  ****    0 ROOT
