@<TRIPOS>MOLECULE
1P3
   25    25     1     0     0
SMALL
abcg2


@<TRIPOS>ATOM
      1 C2           1.3450     0.0710     2.8810 c3         1 1P3      -0.085100
      2 C3           0.4660     0.3320     1.6670 c6         1 1P3      -0.085700
      3 C20          0.8300    -0.6130     0.5220 c6         1 1P3       0.094000
      4 C4          -1.0160     0.1840     2.0030 c6         1 1P3      -0.072400
      5 C5          -1.8950     0.3430     0.7680 c6         1 1P3      -0.098400
      6 N1          -0.0330    -0.4050    -0.6290 n          1 1P3      -0.409800
      7 C6          -1.4420    -0.6040    -0.3370 c6         1 1P3       0.101000
      8 C7          -0.5300     0.3440    -2.9050 c3         1 1P3      -0.176100
      9 C10          0.4530     0.1030    -1.7820 c          1 1P3       0.606100
     10 O11          1.6450     0.3510    -1.9360 o          1 1P3      -0.609100
     11 H2C1         2.4040     0.1990     2.6460 hc         1 1P3       0.036033
     12 H2C2         1.1000     0.7560     3.6930 hc         1 1P3       0.036033
     13 H2C3         1.2070    -0.9460     3.2550 hc         1 1P3       0.036033
     14 H3           0.6440     1.3570     1.3190 hc         1 1P3       0.058700
     15 H201         1.8660    -0.4790     0.2210 h1         1 1P3       0.060700
     16 H202         0.7160    -1.6510     0.8580 h1         1 1P3       0.060700
     17 H4C1        -1.1820    -0.8130     2.4300 hc         1 1P3       0.041200
     18 H4C2        -1.3020     0.9050     2.7730 hc         1 1P3       0.041200
     19 H5C1        -2.9390     0.1340     1.0110 hc         1 1P3       0.047700
     20 H5C2        -1.8510     1.3720     0.4000 hc         1 1P3       0.047700
     21 H6C1        -1.5840    -1.6400    -0.0120 h1         1 1P3       0.047700
     22 H6C2        -2.0440    -0.4700    -1.2300 h1         1 1P3       0.047700
     23 H7C1         0.0110     0.7130    -3.7730 hc         1 1P3       0.059033
     24 H7C2        -1.0550    -0.5680    -3.1890 hc         1 1P3       0.059033
     25 H7C3        -1.2850     1.0840    -2.6350 hc         1 1P3       0.059033
@<TRIPOS>BOND
     1     1     2 1   
     2     1    11 1   
     3     1    12 1   
     4     1    13 1   
     5     2     3 1   
     6     2     4 1   
     7     2    14 1   
     8     3     6 1   
     9     3    15 1   
    10     3    16 1   
    11     4     5 1   
    12     4    17 1   
    13     4    18 1   
    14     5     7 1   
    15     5    19 1   
    16     5    20 1   
    17     6     7 1   
    18     6     9 1   
    19     7    21 1   
    20     7    22 1   
    21     8     9 1   
    22     8    23 1   
    23     8    24 1   
    24     8    25 1   
    25     9    10 2   
@<TRIPOS>SUBSTRUCTURE
     1 1P3         1 TEMP              0 ****  ****    0 ROOT
