@<TRIPOS>MOLECULE
1P4
   61    63     1     0     0
SMALL
abcg2


@<TRIPOS>ATOM
      1 OAA         -5.0110     3.3640     3.6370 oh         1 1P4      -0.656333
      2 CAG         -4.9390     2.1030     3.0110 c3         1 1P4       0.167267
      3 CAJ         -4.2680     2.2750     1.6610 c3         1 1P4      -0.103733
      4 CAM         -4.1840     0.9440     0.9280 c3         1 1P4       0.078600
      5 NBC         -3.5140     1.0680    -0.3520 na         1 1P4       0.123467
      6 CAD         -2.2230     0.8400    -0.6400 cc         1 1P4      -0.199000
      7 NAV         -4.1660     1.5010    -1.4130 nc         1 1P4      -0.202800
      8 NAS         -3.3320     1.5520    -2.3970 nd         1 1P4      -0.357000
      9 CAY         -2.1150     1.1570    -1.9710 cd         1 1P4       0.202300
     10 CAP         -0.9090     1.1180    -2.8470 c3         1 1P4       0.149500
     11 NBB         -0.0260     0.0300    -2.4700 n3         1 1P4      -0.749600
     12 CAR         -0.5450    -1.2650    -2.8740 c3         1 1P4       0.149500
     13 CBA          0.0750    -2.3590    -2.0740 cc         1 1P4       0.202300
     14 CAF          0.4540    -2.3450    -0.7550 cd         1 1P4      -0.199000
     15 NAU          0.3340    -3.5890    -2.5620 nc         1 1P4      -0.357000
     16 NAX          0.8370    -4.3220    -1.6250 nd         1 1P4      -0.202800
     17 NBE          0.9210    -3.5850    -0.5350 na         1 1P4       0.123467
     18 CAO          1.3920    -4.1540     0.7130 c3         1 1P4       0.078600
     19 CAL          0.2780    -4.8690     1.4630 c3         1 1P4      -0.103733
     20 CAI          0.7780    -5.4040     2.7910 c3         1 1P4       0.167267
     21 OAC         -0.2900    -6.0520     3.4420 oh         1 1P4      -0.656333
     22 CAQ          1.3320     0.2420    -2.9340 c3         1 1P4       0.149500
     23 CAZ          2.0220     1.2780    -2.1140 cc         1 1P4       0.202300
     24 CAE          1.8380     1.5930    -0.7920 cd         1 1P4      -0.199000
     25 NAT          3.0060     2.0690    -2.5910 nc         1 1P4      -0.357000
     26 NAW          3.4320     2.8370    -1.6440 nd         1 1P4      -0.202800
     27 NBD          2.7340     2.5670    -0.5580 na         1 1P4       0.123467
     28 CAN          3.0150     3.2430     0.6930 c3         1 1P4       0.078600
     29 CAK          3.8890     2.4020     1.6120 c3         1 1P4      -0.103733
     30 CAH          4.1820     3.1470     2.9010 c3         1 1P4       0.167267
     31 OAB          4.9880     2.3290     3.7170 oh         1 1P4      -0.656333
     32 H1          -5.4440     3.2510     4.4870 ho         1 1P4       0.448333
     33 H2          -4.3650     1.3870     3.6130 h1         1 1P4       0.018533
     34 H3          -5.9380     1.6680     2.8690 h1         1 1P4       0.018533
     35 H4          -4.8310     2.9890     1.0560 hc         1 1P4       0.070367
     36 H5          -3.2620     2.6790     1.7990 hc         1 1P4       0.070367
     37 H6          -3.6310     0.2100     1.5120 h1         1 1P4       0.068867
     38 H7          -5.1770     0.5340     0.7420 h1         1 1P4       0.068867
     39 H8          -1.5150     0.4770     0.0850 h4         1 1P4       0.163667
     40 H9          -1.2230     1.0690    -3.9010 h1         1 1P4       0.060533
     41 H10         -0.3580     2.0560    -2.7410 h1         1 1P4       0.060533
     42 H12         -1.6240    -1.2690    -2.7020 h1         1 1P4       0.060533
     43 H13         -0.4060    -1.4640    -3.9470 h1         1 1P4       0.060533
     44 H14          0.4360    -1.5790     0.0010 h4         1 1P4       0.163667
     45 H15          2.2110    -4.8340     0.4780 h1         1 1P4       0.068867
     46 H16          1.8020    -3.3380     1.3060 h1         1 1P4       0.068867
     47 H17         -0.5480    -4.1730     1.6340 hc         1 1P4       0.070367
     48 H18         -0.1040    -5.6910     0.8530 hc         1 1P4       0.070367
     49 H19          1.6170    -6.0900     2.6140 h1         1 1P4       0.018533
     50 H20          1.1710    -4.5730     3.3920 h1         1 1P4       0.018533
     51 H21          0.0330    -6.3930     4.2810 ho         1 1P4       0.448333
     52 H22          1.8790    -0.7010    -2.8410 h1         1 1P4       0.060533
     53 H23          1.3830     0.5160    -3.9980 h1         1 1P4       0.060533
     54 H24          1.1610     1.2260    -0.0400 h4         1 1P4       0.163667
     55 H25          3.5020     4.1840     0.4420 h1         1 1P4       0.068867
     56 H26          2.0630     3.4800     1.1680 h1         1 1P4       0.068867
     57 H27          3.3830     1.4600     1.8410 hc         1 1P4       0.070367
     58 H28          4.8240     2.1590     1.1030 hc         1 1P4       0.070367
     59 H29          4.6800     4.0970     2.6650 h1         1 1P4       0.018533
     60 H30          3.2350     3.4030     3.3960 h1         1 1P4       0.018533
     61 H31          5.1770     2.8080     4.5280 ho         1 1P4       0.448333
@<TRIPOS>BOND
     1     1     2 1   
     2     1    32 1   
     3     2     3 1   
     4     2    33 1   
     5     2    34 1   
     6     3     4 1   
     7     3    35 1   
     8     3    36 1   
     9     4     5 1   
    10     4    37 1   
    11     4    38 1   
    12     5     6 1   
    13     5     7 1   
    14     6     9 2   
    15     6    39 1   
    16     7     8 2   
    17     8     9 1   
    18     9    10 1   
    19    10    11 1   
    20    10    40 1   
    21    10    41 1   
    22    11    12 1   
    23    11    22 1   
    24    12    13 1   
    25    12    42 1   
    26    12    43 1   
    27    13    14 2   
    28    13    15 1   
    29    14    17 1   
    30    14    44 1   
    31    15    16 2   
    32    16    17 1   
    33    17    18 1   
    34    18    19 1   
    35    18    45 1   
    36    18    46 1   
    37    19    20 1   
    38    19    47 1   
    39    19    48 1   
    40    20    21 1   
    41    20    49 1   
    42    20    50 1   
    43    21    51 1   
    44    22    23 1   
    45    22    52 1   
    46    22    53 1   
    47    23    24 2   
    48    23    25 1   
    49    24    27 1   
    50    24    54 1   
    51    25    26 2   
    52    26    27 1   
    53    27    28 1   
    54    28    29 1   
    55    28    55 1   
    56    28    56 1   
    57    29    30 1   
    58    29    57 1   
    59    29    58 1   
    60    30    31 1   
    61    30    59 1   
    62    30    60 1   
    63    31    61 1   
@<TRIPOS>SUBSTRUCTURE
     1 1P4         1 TEMP              0 ****  ****    0 ROOT
