@<TRIPOS>MOLECULE
1P4
   61    63     1     0     0
SMALL
No Charge or Current Charge


@<TRIPOS>ATOM
      1 OAA         -5.7590     3.4950     3.5100 oh         1 1P4      -0.656333
      2 CAG         -5.7730     2.2740     2.7660 c3         1 1P4       0.167267
      3 CAJ         -4.8350     2.4020     1.5530 c3         1 1P4      -0.103733
      4 CAM         -4.7930     1.1190     0.6940 c3         1 1P4       0.078600
      5 NBC         -3.8970     1.2330    -0.4670 na         1 1P4       0.123467
      6 CAD         -2.5380     1.0560    -0.4890 cc         1 1P4      -0.199000
      7 NAV         -4.3820     1.5530    -1.7010 nc         1 1P4      -0.202800
      8 NAS         -3.3550     1.5780    -2.5090 nd         1 1P4      -0.357000
      9 CAY         -2.2100     1.2770    -1.7970 cd         1 1P4       0.202300
     10 CAP         -0.8350     1.2170    -2.4360 c3         1 1P4       0.149500
     11 NBB         -0.0200     0.0230    -2.0540 n3         1 1P4      -0.749600
     12 CAR         -0.6490    -1.2660    -2.4750 c3         1 1P4       0.149500
     13 CBA         -0.0120    -2.5050    -1.8760 cc         1 1P4       0.202300
     14 CAF          0.3460    -2.7130    -0.5800 cd         1 1P4      -0.199000
     15 NAU          0.2820    -3.6040    -2.6340 nc         1 1P4      -0.357000
     16 NAX          0.8220    -4.5110    -1.8580 nd         1 1P4      -0.202800
     17 NBE          0.8730    -3.9830    -0.5920 na         1 1P4       0.123467
     18 CAO          1.4230    -4.7370     0.5450 c3         1 1P4       0.078600
     19 CAL          0.3340    -5.4280     1.3940 c3         1 1P4      -0.103733
     20 CAI          0.9180    -6.2140     2.5810 c3         1 1P4       0.167267
     21 OAC         -0.1450    -6.8240     3.3180 oh         1 1P4      -0.656333
     22 CAQ          1.4090     0.1370    -2.4780 c3         1 1P4       0.149500
     23 CAZ          2.1660     1.2870    -1.8450 cc         1 1P4       0.202300
     24 CAE          2.1730     1.6590    -0.5360 cd         1 1P4      -0.199000
     25 NAT          2.9670     2.1170    -2.5800 nc         1 1P4      -0.357000
     26 NAW          3.4860     3.0110    -1.7760 nd         1 1P4      -0.202800
     27 NBD          3.0100     2.7500    -0.5160 na         1 1P4       0.123467
     28 CAN          3.3930     3.5650     0.6470 c3         1 1P4       0.078600
     29 CAK          4.5400     2.9400     1.4700 c3         1 1P4      -0.103733
     30 CAH          4.9350     3.7990     2.6850 c3         1 1P4       0.167267
     31 OAB          5.9980     3.1590     3.3960 oh         1 1P4      -0.656333
     32 H1          -6.3710     3.3720     4.2710 ho         1 1P4       0.448333
     33 H2          -5.4400     1.4390     3.3970 h1         1 1P4       0.018533
     34 H3          -6.7900     2.0520     2.4170 h1         1 1P4       0.018533
     35 H4          -5.1630     3.2420     0.9290 hc         1 1P4       0.070367
     36 H5          -3.8210     2.6350     1.9030 hc         1 1P4       0.070367
     37 H6          -4.4520     0.2770     1.3090 h1         1 1P4       0.068867
     38 H7          -5.8040     0.8840     0.3370 h1         1 1P4       0.068867
     39 H8          -1.9410     0.7960     0.3730 h4         1 1P4       0.163667
     40 H9          -0.9550     1.2550    -3.5270 h1         1 1P4       0.060533
     41 H10         -0.3160     2.1400    -2.1450 h1         1 1P4       0.060533
     42 H12         -1.7070    -1.2860    -2.1830 h1         1 1P4       0.060533
     43 H13         -0.6250    -1.3540    -3.5710 h1         1 1P4       0.060533
     44 H14          0.2740    -2.0840     0.2970 h4         1 1P4       0.163667
     45 H15          2.1220    -5.4900     0.1610 h1         1 1P4       0.068867
     46 H16          1.9920    -4.0410     1.1740 h1         1 1P4       0.068867
     47 H17         -0.3650    -4.6710     1.7700 hc         1 1P4       0.070367
     48 H18         -0.2400    -6.1110     0.7560 hc         1 1P4       0.070367
     49 H19          1.6100    -6.9800     2.2060 h1         1 1P4       0.018533
     50 H20          1.4850    -5.5300     3.2270 h1         1 1P4       0.018533
     51 H21          0.2690    -7.3160     4.0630 ho         1 1P4       0.448333
     52 H22          1.9560    -0.7790    -2.2180 h1         1 1P4       0.060533
     53 H23          1.4680     0.2370    -3.5710 h1         1 1P4       0.060533
     54 H24          1.6690     1.2530     0.3310 h4         1 1P4       0.163667
     55 H25          3.6950     4.5600     0.2940 h1         1 1P4       0.068867
     56 H26          2.5100     3.6900     1.2850 h1         1 1P4       0.068867
     57 H27          4.2360     1.9440     1.8150 hc         1 1P4       0.070367
     58 H28          5.4150     2.8050     0.8230 hc         1 1P4       0.070367
     59 H29          5.2510     4.7930     2.3400 h1         1 1P4       0.018533
     60 H30          4.0620     3.9270     3.3390 h1         1 1P4       0.018533
     61 H31          6.2210     3.7390     4.1590 ho         1 1P4       0.448333
@<TRIPOS>BOND
     1     1     2 1   
     2     1    32 1   
     3     2     3 1   
     4     2    33 1   
     5     2    34 1   
     6     3     4 1   
     7     3    35 1   
     8     3    36 1   
     9     4     5 1   
    10     4    37 1   
    11     4    38 1   
    12     5     6 1   
    13     5     7 1   
    14     6     9 2   
    15     6    39 1   
    16     7     8 2   
    17     8     9 1   
    18     9    10 1   
    19    10    11 1   
    20    10    40 1   
    21    10    41 1   
    22    11    12 1   
    23    11    22 1   
    24    12    13 1   
    25    12    42 1   
    26    12    43 1   
    27    13    14 2   
    28    13    15 1   
    29    14    17 1   
    30    14    44 1   
    31    15    16 2   
    32    16    17 1   
    33    17    18 1   
    34    18    19 1   
    35    18    45 1   
    36    18    46 1   
    37    19    20 1   
    38    19    47 1   
    39    19    48 1   
    40    20    21 1   
    41    20    49 1   
    42    20    50 1   
    43    21    51 1   
    44    22    23 1   
    45    22    52 1   
    46    22    53 1   
    47    23    24 2   
    48    23    25 1   
    49    24    27 1   
    50    24    54 1   
    51    25    26 2   
    52    26    27 1   
    53    27    28 1   
    54    28    29 1   
    55    28    55 1   
    56    28    56 1   
    57    29    30 1   
    58    29    57 1   
    59    29    58 1   
    60    30    31 1   
    61    30    59 1   
    62    30    60 1   
    63    31    61 1   
@<TRIPOS>SUBSTRUCTURE
     1 1P4         1 TEMP              0 ****  ****    0 ROOT
