@<TRIPOS>MOLECULE
1P5
   55    58     1     0     0
SMALL
bcc


@<TRIPOS>ATOM
      1 N3          -4.6230    -0.6100    -0.6820 n          1 1P5      -0.484800
      2 C4          -5.9330    -0.6350    -0.0450 c3         1 1P5       0.106000
      3 C5          -6.7640     0.6180    -0.2780 c3         1 1P5      -0.114600
      4 C6          -3.5020    -0.1240    -0.0970 c          1 1P5       0.670100
      5 C8          -3.5850     0.3190     1.3550 c6         1 1P5      -0.167700
      6 C10         -3.3940    -0.8850     2.2960 c6         1 1P5      -0.066400
      7 C15         -0.2690     1.2600     0.8400 ca         1 1P5       0.748200
      8 C17          1.8440     1.0260    -0.2590 ca         1 1P5       0.596100
      9 C21          3.1030     0.3630    -0.5200 cc         1 1P5      -0.420400
     10 C22          3.5780    -0.8440    -0.0060 cd         1 1P5       0.425500
     11 C24          3.7890    -2.7940     1.1260 cc         1 1P5       0.453200
     12 C26          5.5550    -2.1260    -0.3170 cd         1 1P5       0.011700
     13 C1          -4.5620     0.0530    -3.1010 c3         1 1P5      -0.114600
     14 C2          -4.5350    -1.0620    -2.0650 c3         1 1P5       0.106000
     15 O7          -2.4380    -0.0810    -0.7040 o          1 1P5      -0.590100
     16 C11         -1.9430    -1.3510     2.3370 c6         1 1P5      -0.103400
     17 C12         -1.0410    -0.1760     2.6890 c6         1 1P5       0.222800
     18 N13         -1.2050     0.9140     1.7490 nh         1 1P5      -0.770300
     19 C14         -2.5620     1.4140     1.6840 c6         1 1P5       0.240800
     20 C16          0.9300     0.5460     0.6650 ca         1 1P5      -0.427600
     21 N18          1.5930     2.1400    -0.9780 nb         1 1P5      -0.801000
     22 C19          0.4330     2.7260    -0.7460 ca         1 1P5       0.697900
     23 N20         -0.5000     2.3630     0.1070 nb         1 1P5      -0.795000
     24 N23          3.0700    -1.7290     0.8540 nd         1 1P5      -0.666000
     25 C25          5.0510    -3.0440     0.5630 cc         1 1P5      -0.333300
     26 N27          4.8170    -1.0430    -0.5900 na         1 1P5       0.089200
     27 N28          5.1660    -0.0570    -1.4280 nd         1 1P5      -0.678100
     28 C29          4.1450     0.7940    -1.3920 cc         1 1P5       0.668500
     29 N30          4.1810     1.9450    -2.0930 nv         1 1P5      -0.894800
     30 H4          -6.4650    -1.5040    -0.4340 h1         1 1P5       0.046950
     31 H4A         -5.8250    -0.8170     1.0220 h1         1 1P5       0.046950
     32 H5          -6.2610     1.5080     0.1040 hc         1 1P5       0.042033
     33 H5A         -6.9710     0.7750    -1.3360 hc         1 1P5       0.042033
     34 H5B         -7.7210     0.5290     0.2380 hc         1 1P5       0.042033
     35 H8          -4.5640     0.7580     1.5580 hc         1 1P5       0.062700
     36 H10         -3.6920    -0.5750     3.3020 hc         1 1P5       0.042200
     37 H10A        -4.0560    -1.7080     2.0170 hc         1 1P5       0.042200
     38 H24          3.3630    -3.5020     1.8270 h4         1 1P5       0.027100
     39 H26          6.5110    -2.2070    -0.8120 h4         1 1P5       0.180000
     40 H1          -4.4900    -0.3740    -4.1020 hc         1 1P5       0.042033
     41 H1A         -5.4870     0.6270    -3.0540 hc         1 1P5       0.042033
     42 H1B         -3.7270     0.7380    -2.9690 hc         1 1P5       0.042033
     43 H2          -3.6260    -1.6530    -2.1860 h1         1 1P5       0.046950
     44 H2A         -5.3700    -1.7430    -2.2360 h1         1 1P5       0.046950
     45 H11         -1.8270    -2.1330     3.0890 hc         1 1P5       0.057200
     46 H11A        -1.6390    -1.7790     1.3790 hc         1 1P5       0.057200
     47 H12         -1.3170     0.1970     3.6820 h1         1 1P5       0.053200
     48 H12A         0.0000    -0.4770     2.7570 h1         1 1P5       0.053200
     49 H14         -2.6160     2.2300     0.9690 h1         1 1P5       0.066700
     50 H14A        -2.8280     1.8230     2.6650 h1         1 1P5       0.066700
     51 H16          1.1470    -0.3640     1.1990 ha         1 1P5       0.166000
     52 H19          0.2260     3.6200    -1.3270 h5         1 1P5       0.033100
     53 H25          5.6130    -3.9300     0.8130 ha         1 1P5       0.159000
     54 HN30         3.2990     2.4240    -2.1930 hn         1 1P5       0.442800
     55 HN3A         4.8420     2.0180    -2.8480 hn         1 1P5       0.442800
@<TRIPOS>BOND
     1     1     2 1   
     2     1     4 1   
     3     1    14 1   
     4     2     3 1   
     5     2    30 1   
     6     2    31 1   
     7     3    32 1   
     8     3    33 1   
     9     3    34 1   
    10     4     5 1   
    11     4    15 2   
    12     5     6 1   
    13     5    19 1   
    14     5    35 1   
    15     6    16 1   
    16     6    36 1   
    17     6    37 1   
    18     7    18 1   
    19     7    20 ar  
    20     7    23 ar  
    21     8     9 1   
    22     8    20 ar  
    23     8    21 ar  
    24     9    10 2   
    25     9    28 1   
    26    10    24 1   
    27    10    26 1   
    28    11    24 2   
    29    11    25 1   
    30    11    38 1   
    31    12    25 2   
    32    12    26 1   
    33    12    39 1   
    34    13    14 1   
    35    13    40 1   
    36    13    41 1   
    37    13    42 1   
    38    14    43 1   
    39    14    44 1   
    40    16    17 1   
    41    16    45 1   
    42    16    46 1   
    43    17    18 1   
    44    17    47 1   
    45    17    48 1   
    46    18    19 1   
    47    19    49 1   
    48    19    50 1   
    49    20    51 1   
    50    21    22 ar  
    51    22    23 ar  
    52    22    52 1   
    53    25    53 1   
    54    26    27 1   
    55    27    28 2   
    56    28    29 1   
    57    29    54 1   
    58    29    55 1   
@<TRIPOS>SUBSTRUCTURE
     1 1P5         1 TEMP              0 ****  ****    0 ROOT
