@<TRIPOS>MOLECULE
1P5
   55    58     1     0     0
SMALL
No Charge or Current Charge


@<TRIPOS>ATOM
      1 N3          -5.0670    -0.9550    -0.5190 n          1 1P5      -0.417800
      2 C4          -6.2970    -0.6800     0.2700 c3         1 1P5       0.106000
      3 C5          -7.0330     0.5980    -0.1720 c3         1 1P5      -0.114600
      4 C6          -3.7610    -0.6620    -0.0330 c          1 1P5       0.603100
      5 C8          -3.5670     0.3230     1.1520 c6         1 1P5      -0.167700
      6 C10         -3.4750    -0.3710     2.5370 c6         1 1P5      -0.066400
      7 C15          0.0500     1.3850     0.6170 ca         1 1P5       0.419900
      8 C17          2.3690     1.2510    -0.0420 ca         1 1P5       0.267800
      9 C21          3.6550     0.5680    -0.1530 cc         1 1P5      -0.420400
     10 C22          3.8220    -0.7580    -0.4140 cd         1 1P5       0.425500
     11 C24          3.3440    -2.8500    -0.8760 cc         1 1P5       0.387900
     12 C26          5.7380    -2.1530    -0.8710 cd         1 1P5      -0.021000
     13 C1          -5.2840    -1.0240    -3.0290 c3         1 1P5      -0.114600
     14 C2          -5.2330    -1.8220    -1.7140 c3         1 1P5       0.106000
     15 O7          -2.7840    -1.1810    -0.5600 o          1 1P5      -0.590100
     16 C11         -2.0390    -0.8840     2.7810 c6         1 1P5      -0.103400
     17 C12         -1.0070     0.2560     2.6110 c6         1 1P5       0.222800
     18 N13         -1.1030     0.8720     1.2550 nh         1 1P5      -0.770300
     19 C14         -2.4660     1.3850     0.9100 c6         1 1P5       0.240800
     20 C16          1.2590     0.6740     0.6010 ca         1 1P5      -0.279000
     21 N18          2.2530     2.4500    -0.6490 nb         1 1P5      -0.275000
     22 C19          1.0510     3.0550    -0.5920 ca         1 1P5       0.171900
     23 N20         -0.0560     2.5830     0.0100 nb         1 1P5      -0.269000
     24 N23          2.7980    -1.6700    -0.5810 nd         1 1P5      -0.666000
     25 C25          4.7570    -3.1280    -1.0240 cc         1 1P5      -0.250000
     26 N27          5.1960    -0.9150    -0.5460 na         1 1P5       0.139900
     27 N28          5.9470     0.2370    -0.4400 nd         1 1P5      -0.678100
     28 C29          4.9650     1.0750    -0.2200 cc         1 1P5       0.668500
     29 N30          5.2480     2.3610    -0.0670 nv         1 1P5      -1.005200
     30 H4          -6.9860    -1.5280     0.1690 h1         1 1P5       0.046950
     31 H4A         -6.0580    -0.6150     1.3380 h1         1 1P5       0.046950
     32 H5          -6.3730     1.4720    -0.1160 hc         1 1P5       0.042033
     33 H5A         -7.3940     0.5020    -1.2020 hc         1 1P5       0.042033
     34 H5B         -7.8980     0.7790     0.4760 hc         1 1P5       0.042033
     35 H8          -4.4970     0.8970     1.2100 hc         1 1P5       0.062700
     36 H10         -3.7420     0.3450     3.3270 hc         1 1P5       0.042200
     37 H10A        -4.1920    -1.2000     2.6090 hc         1 1P5       0.042200
     38 H24          2.6120    -3.6350    -1.0120 h4         1 1P5       0.027100
     39 H26          6.8100    -2.2630    -0.9780 h4         1 1P5       0.162000
     40 H1          -5.3940    -1.7050    -3.8820 hc         1 1P5       0.042033
     41 H1A         -6.1320    -0.3300    -3.0340 hc         1 1P5       0.042033
     42 H1B         -4.3620    -0.4480    -3.1660 hc         1 1P5       0.042033
     43 H2          -4.4170    -2.5540    -1.7660 h1         1 1P5       0.046950
     44 H2A         -6.1630    -2.3990    -1.6230 h1         1 1P5       0.046950
     45 H11         -1.9600    -1.3060     3.7920 hc         1 1P5       0.057200
     46 H11A        -1.8050    -1.6990     2.0830 hc         1 1P5       0.057200
     47 H12         -1.1850     1.0220     3.3810 h1         1 1P5       0.053200
     48 H12A        -0.0040    -0.1530     2.7980 h1         1 1P5       0.053200
     49 H14         -2.5160     1.7030    -0.1430 h1         1 1P5       0.066700
     50 H14A        -2.6850     2.2720     1.5240 h1         1 1P5       0.066700
     51 H16          1.3350    -0.2960     1.0750 ha         1 1P5       0.148000
     52 H19          0.9660     4.0220    -1.0840 h5         1 1P5       0.033100
     53 H25          5.0400    -4.1450    -1.2740 ha         1 1P5       0.141000
     54 HN30         4.4810     2.9970    -0.2460 hn         1 1P5       0.498000
     55 HN3A         6.1560     2.6470    -0.4090 hn         1 1P5       0.498000
@<TRIPOS>BOND
     1     1     2 1   
     2     1     4 1   
     3     1    14 1   
     4     2     3 1   
     5     2    30 1   
     6     2    31 1   
     7     3    32 1   
     8     3    33 1   
     9     3    34 1   
    10     4     5 1   
    11     4    15 2   
    12     5     6 1   
    13     5    19 1   
    14     5    35 1   
    15     6    16 1   
    16     6    36 1   
    17     6    37 1   
    18     7    18 1   
    19     7    20 ar  
    20     7    23 ar  
    21     8     9 1   
    22     8    20 ar  
    23     8    21 ar  
    24     9    10 2   
    25     9    28 1   
    26    10    24 1   
    27    10    26 1   
    28    11    24 2   
    29    11    25 1   
    30    11    38 1   
    31    12    25 2   
    32    12    26 1   
    33    12    39 1   
    34    13    14 1   
    35    13    40 1   
    36    13    41 1   
    37    13    42 1   
    38    14    43 1   
    39    14    44 1   
    40    16    17 1   
    41    16    45 1   
    42    16    46 1   
    43    17    18 1   
    44    17    47 1   
    45    17    48 1   
    46    18    19 1   
    47    19    49 1   
    48    19    50 1   
    49    20    51 1   
    50    21    22 ar  
    51    22    23 ar  
    52    22    52 1   
    53    25    53 1   
    54    26    27 1   
    55    27    28 2   
    56    28    29 1   
    57    29    54 1   
    58    29    55 1   
@<TRIPOS>SUBSTRUCTURE
     1 1P5         1 TEMP              0 ****  ****    0 ROOT
