@<TRIPOS>MOLECULE
1P6
   42    45     1     0     0
SMALL
No Charge or Current Charge


@<TRIPOS>ATOM
      1 C1          -1.9590     0.1340     2.3000 c3         1 1P6      -0.113100
      2 C2          -2.1960    -0.0080     0.7820 c3         1 1P6       0.296800
      3 N4          -1.6720     1.1620     0.0730 nu         1 1P6      -0.935100
      4 C5          -0.3530     1.4930    -0.1840 ca         1 1P6       0.390900
      5 N6          -0.1700     2.6810    -0.7720 nb         1 1P6      -0.280000
      6 C7           1.1040     3.0230    -1.0390 ca         1 1P6       0.172900
      7 N8           2.2040     2.2900    -0.7740 nb         1 1P6      -0.278000
      8 C9           2.0190     1.0940    -0.1750 ca         1 1P6       0.275800
      9 C10          0.7200     0.6510     0.1300 ca         1 1P6      -0.294000
     10 C11          3.2030     0.2750     0.0640 cc         1 1P6      -0.429400
     11 C12          3.2880    -1.0660    -0.1520 cd         1 1P6       0.427500
     12 N13          2.2550    -1.8660    -0.6000 nd         1 1P6      -0.669000
     13 C14          2.7280    -3.1050    -0.7440 cc         1 1P6       0.389900
     14 C15          4.0880    -3.5370    -0.5010 cc         1 1P6      -0.247000
     15 C16          5.0910    -2.6700    -0.0780 cd         1 1P6      -0.021000
     16 N17          4.6210    -1.3730     0.0960 na         1 1P6       0.142900
     17 N18          5.4350    -0.3070     0.4140 nd         1 1P6      -0.675100
     18 C19          4.5290     0.6360     0.3640 cc         1 1P6       0.670500
     19 N20          4.8970     1.8870     0.6000 nv         1 1P6      -1.002200
     20 C21         -3.6750    -0.1780     0.4320 ca         1 1P6      -0.117300
     21 C22         -4.0850    -1.2740    -0.3570 ca         1 1P6      -0.070500
     22 C23         -5.4420    -1.4430    -0.6890 ca         1 1P6      -0.152500
     23 C24         -6.3930    -0.5180    -0.2380 ca         1 1P6       0.179000
     24 F25         -7.6950    -0.6810    -0.5580 f          1 1P6      -0.177000
     25 C26         -5.9990     0.5790     0.5420 ca         1 1P6      -0.152500
     26 C27         -4.6430     0.7510     0.8760 ca         1 1P6      -0.070500
     27 H1          -2.4130     1.0510     2.6930 hc         1 1P6       0.046700
     28 H1A         -2.3930    -0.7200     2.8320 hc         1 1P6       0.046700
     29 H1B         -0.8870     0.1630     2.5270 hc         1 1P6       0.046700
     30 H2          -1.6650    -0.9080     0.4400 h1         1 1P6       0.066700
     31 HN4         -2.3580     1.8360    -0.2640 hn         1 1P6       0.504000
     32 H7           1.2630     3.9870    -1.5200 h5         1 1P6       0.037100
     33 H10          0.5590    -0.3070     0.6060 ha         1 1P6       0.150000
     34 H14          1.9800    -3.8090    -1.0820 h4         1 1P6       0.029100
     35 H15          4.3160    -4.5830    -0.6730 ha         1 1P6       0.144000
     36 H16          6.1330    -2.8970     0.1130 h4         1 1P6       0.164000
     37 HN20         4.2820     2.5980     0.2240 hn         1 1P6       0.498000
     38 HN2A         5.8900     2.0680     0.5210 hn         1 1P6       0.498000
     39 H22         -3.3540    -1.9960    -0.7140 ha         1 1P6       0.119500
     40 H23         -5.7550    -2.2890    -1.2960 ha         1 1P6       0.134500
     41 H26         -6.7420     1.2940     0.8850 ha         1 1P6       0.134500
     42 H27         -4.3490     1.6090     1.4770 ha         1 1P6       0.119500
@<TRIPOS>BOND
     1     1     2 1   
     2     1    27 1   
     3     1    28 1   
     4     1    29 1   
     5     2     3 1   
     6     2    20 1   
     7     2    30 1   
     8     3     4 1   
     9     3    31 1   
    10     4     5 ar  
    11     4     9 ar  
    12     5     6 ar  
    13     6     7 ar  
    14     6    32 1   
    15     7     8 ar  
    16     8     9 ar  
    17     8    10 1   
    18     9    33 1   
    19    10    11 2   
    20    10    18 1   
    21    11    12 1   
    22    11    16 1   
    23    12    13 2   
    24    13    14 1   
    25    13    34 1   
    26    14    15 2   
    27    14    35 1   
    28    15    16 1   
    29    15    36 1   
    30    16    17 1   
    31    17    18 2   
    32    18    19 1   
    33    19    37 1   
    34    19    38 1   
    35    20    21 ar  
    36    20    26 ar  
    37    21    22 ar  
    38    21    39 1   
    39    22    23 ar  
    40    22    40 1   
    41    23    24 1   
    42    23    25 ar  
    43    25    26 ar  
    44    25    41 1   
    45    26    42 1   
@<TRIPOS>SUBSTRUCTURE
     1 1P6         1 TEMP              0 ****  ****    0 ROOT
