@<TRIPOS>MOLECULE
1P6
   42    45     1     0     0
SMALL
abcg2


@<TRIPOS>ATOM
      1 C1          -1.9490    -0.3380     2.1970 c3         1 1P6      -0.113100
      2 C2          -2.1410    -0.0340     0.7120 c3         1 1P6       0.296800
      3 N4          -1.6670     1.2910     0.3550 nu         1 1P6      -0.935100
      4 C5          -0.3860     1.6310     0.1360 ca         1 1P6       0.390900
      5 N6          -0.1580     2.9320    -0.1160 nb         1 1P6      -0.280000
      6 C7           1.0900     3.2730    -0.3600 ca         1 1P6       0.172900
      7 N8           2.1530     2.4910    -0.3850 nb         1 1P6      -0.278000
      8 C9           1.9420     1.1830    -0.1260 ca         1 1P6       0.275800
      9 C10          0.6670     0.7060     0.1470 ca         1 1P6      -0.294000
     10 C11          3.1020     0.3250    -0.1520 cc         1 1P6      -0.429400
     11 C12          3.1660    -1.0580     0.0290 cd         1 1P6       0.427500
     12 N13          2.2430    -1.9830     0.2960 nd         1 1P6      -0.669000
     13 C14          2.6440    -3.2290     0.4030 cc         1 1P6       0.389900
     14 C15          3.9820    -3.6290     0.2510 cc         1 1P6      -0.247000
     15 C16          4.9140    -2.6660    -0.0230 cd         1 1P6      -0.021000
     16 N17          4.4970    -1.3980    -0.1310 na         1 1P6       0.142900
     17 N18          5.2810    -0.3430    -0.3940 nd         1 1P6      -0.675100
     18 C19          4.4540     0.6980    -0.4060 cc         1 1P6       0.670500
     19 N20          4.9220     1.9470    -0.6000 nv         1 1P6      -1.002200
     20 C21         -3.5840    -0.1680     0.2830 ca         1 1P6      -0.117300
     21 C22         -3.9360    -1.0310    -0.7490 ca         1 1P6      -0.070500
     22 C23         -5.2550    -1.1550    -1.1660 ca         1 1P6      -0.152500
     23 C24         -6.2180    -0.3930    -0.5360 ca         1 1P6       0.179000
     24 F25         -7.4960    -0.4980    -0.9360 f          1 1P6      -0.177000
     25 C26         -5.9080     0.4760     0.4920 ca         1 1P6      -0.152500
     26 C27         -4.5860     0.5790     0.8980 ca         1 1P6      -0.070500
     27 H1          -2.5260     0.3480     2.8190 hc         1 1P6       0.046700
     28 H1A         -2.2720    -1.3550     2.4210 hc         1 1P6       0.046700
     29 H1B         -0.9010    -0.2460     2.4850 hc         1 1P6       0.046700
     30 H2          -1.5640    -0.7620     0.1350 h1         1 1P6       0.066700
     31 HN4         -2.3260     2.0550     0.3760 hn         1 1P6       0.504000
     32 H7           1.2660     4.3240    -0.5650 h5         1 1P6       0.037100
     33 H10          0.5120    -0.3410     0.3530 ha         1 1P6       0.150000
     34 H14          1.8830    -3.9680     0.6200 h4         1 1P6       0.029100
     35 H15          4.2730    -4.6630     0.3460 ha         1 1P6       0.144000
     36 H16          5.9690    -2.8490    -0.1620 h4         1 1P6       0.164000
     37 HN20         4.2240     2.6500    -0.7940 hn         1 1P6       0.498000
     38 HN2A         5.8210     2.0510    -1.0390 hn         1 1P6       0.498000
     39 H22         -3.1740    -1.6230    -1.2390 ha         1 1P6       0.119500
     40 H23         -5.5220    -1.8290    -1.9700 ha         1 1P6       0.134500
     41 H26         -6.6820     1.0640     0.9690 ha         1 1P6       0.134500
     42 H27         -4.3490     1.2570     1.7090 ha         1 1P6       0.119500
@<TRIPOS>BOND
     1     1     2 1   
     2     1    27 1   
     3     1    28 1   
     4     1    29 1   
     5     2     3 1   
     6     2    20 1   
     7     2    30 1   
     8     3     4 1   
     9     3    31 1   
    10     4     5 ar  
    11     4     9 ar  
    12     5     6 ar  
    13     6     7 ar  
    14     6    32 1   
    15     7     8 ar  
    16     8     9 ar  
    17     8    10 1   
    18     9    33 1   
    19    10    11 2   
    20    10    18 1   
    21    11    12 1   
    22    11    16 1   
    23    12    13 2   
    24    13    14 1   
    25    13    34 1   
    26    14    15 2   
    27    14    35 1   
    28    15    16 1   
    29    15    36 1   
    30    16    17 1   
    31    17    18 2   
    32    18    19 1   
    33    19    37 1   
    34    19    38 1   
    35    20    21 ar  
    36    20    26 ar  
    37    21    22 ar  
    38    21    39 1   
    39    22    23 ar  
    40    22    40 1   
    41    23    24 1   
    42    23    25 ar  
    43    25    26 ar  
    44    25    41 1   
    45    26    42 1   
@<TRIPOS>SUBSTRUCTURE
     1 1P6         1 TEMP              0 ****  ****    0 ROOT
