@<TRIPOS>MOLECULE
1P7
   17    18     1     0     0
SMALL
No Charge or Current Charge


@<TRIPOS>ATOM
      1 O9          -2.2890     2.1390     0.0150 o          1 1P7      -0.537000
      2 C8          -2.0770     0.9370     0.0070 c          1 1P7       0.580600
      3 N7          -3.0450    -0.0450     0.0060 ns         1 1P7      -0.519900
      4 C6          -2.4440    -1.3940    -0.0040 c5         1 1P7       0.148300
      5 C10         -0.7570     0.2620    -0.0030 ca         1 1P7      -0.156600
      6 C11          0.5300     0.8210    -0.0060 ca         1 1P7      -0.032000
      7 C2           1.6310    -0.0590    -0.0160 ca         1 1P7       0.106000
      8 Cl1          3.2670     0.5880    -0.0200 cl         1 1P7      -0.193000
      9 C5          -0.9600    -1.1040    -0.0090 ca         1 1P7      -0.087300
     10 C4           0.1240    -1.9950    -0.0190 ca         1 1P7      -0.092000
     11 C3           1.4310    -1.4590    -0.0230 ca         1 1P7      -0.083000
     12 H1          -2.7260    -1.9760     0.8840 h1         1 1P7       0.061700
     13 H2           0.6760     1.8990    -0.0010 ha         1 1P7       0.151000
     14 H3          -0.0370    -3.0710    -0.0240 ha         1 1P7       0.125000
     15 H4           2.2890    -2.1260    -0.0300 ha         1 1P7       0.132000
     16 H5          -4.0290     0.1970     0.0120 hn         1 1P7       0.334500
     17 H6          -2.7340    -1.9660    -0.8950 h1         1 1P7       0.061700
@<TRIPOS>BOND
     1     1     2 2   
     2     2     3 1   
     3     2     5 1   
     4     3     4 1   
     5     3    16 1   
     6     4     9 1   
     7     4    12 1   
     8     4    17 1   
     9     5     6 ar  
    10     5     9 ar  
    11     6     7 ar  
    12     6    13 1   
    13     7     8 1   
    14     7    11 ar  
    15     9    10 ar  
    16    10    11 ar  
    17    10    14 1   
    18    11    15 1   
@<TRIPOS>SUBSTRUCTURE
     1 1P7         1 TEMP              0 ****  ****    0 ROOT
