@<TRIPOS>MOLECULE
1P7
   17    18     1     0     0
SMALL
abcg2


@<TRIPOS>ATOM
      1 O9          -2.2700     2.1450     0.0160 o          1 1P7      -0.537000
      2 C8          -2.0610     0.9440     0.0060 c          1 1P7       0.580600
      3 N7          -2.9770    -0.0470     0.0030 ns         1 1P7      -0.519900
      4 C6          -2.4290    -1.3840    -0.0050 c5         1 1P7       0.148300
      5 C10         -0.7470     0.2570    -0.0040 ca         1 1P7      -0.156600
      6 C11          0.5190     0.8150    -0.0060 ca         1 1P7      -0.032000
      7 C2           1.5880    -0.0650    -0.0150 ca         1 1P7       0.106000
      8 CL1          3.2040     0.5620    -0.0200 cl         1 1P7      -0.193000
      9 C5          -0.9560    -1.1110    -0.0090 ca         1 1P7      -0.087300
     10 C4           0.1200    -1.9810    -0.0190 ca         1 1P7      -0.092000
     11 C3           1.4020    -1.4460    -0.0220 ca         1 1P7      -0.083000
     12 H1          -2.7380    -1.9520     0.8760 h1         1 1P7       0.061700
     13 H2           0.6660     1.8870    -0.0020 ha         1 1P7       0.151000
     14 H3          -0.0160    -3.0550    -0.0250 ha         1 1P7       0.125000
     15 H4           2.2600    -2.1050    -0.0290 ha         1 1P7       0.132000
     16 H5          -3.9690     0.1300     0.0170 hn         1 1P7       0.334500
     17 H6          -2.7450    -1.9440    -0.8880 h1         1 1P7       0.061700
@<TRIPOS>BOND
     1     1     2 2   
     2     2     3 1   
     3     2     5 1   
     4     3     4 1   
     5     3    16 1   
     6     4     9 1   
     7     4    12 1   
     8     4    17 1   
     9     5     6 ar  
    10     5     9 ar  
    11     6     7 ar  
    12     6    13 1   
    13     7     8 1   
    14     7    11 ar  
    15     9    10 ar  
    16    10    11 ar  
    17    10    14 1   
    18    11    15 1   
@<TRIPOS>SUBSTRUCTURE
     1 1P7         1 TEMP              0 ****  ****    0 ROOT
