@<TRIPOS>MOLECULE
1P8
   17    18     1     0     0
SMALL
abcg2


@<TRIPOS>ATOM
      1 O8          -4.7120    -0.8520     0.0460 o          1 1P8      -0.518000
      2 C7          -3.5810    -0.4190     0.0390 c          1 1P8       0.565000
      3 C6          -3.1470     1.0390     0.0620 c5         1 1P8      -0.120100
      4 N9          -2.4410    -1.1720     0.0090 ns         1 1P8      -0.150000
      5 C10         -1.2960    -0.3920     0.0100 ca         1 1P8      -0.026000
      6 C11          0.0220    -0.8060    -0.0130 ca         1 1P8      -0.124000
      7 C2           0.9890     0.1960    -0.0050 ca         1 1P8       0.015100
      8 BR1          2.8090    -0.3120    -0.0350 br         1 1P8      -0.092100
      9 C5          -1.6560     0.9560     0.0400 ca         1 1P8      -0.134300
     10 C4          -0.6770     1.9240     0.0470 ca         1 1P8      -0.057000
     11 C3           0.6660     1.5440     0.0240 ca         1 1P8      -0.116000
     12 H1          -3.5650     1.5640    -0.8000 hc         1 1P8       0.093700
     13 H2          -3.5400     1.5300     0.9560 hc         1 1P8       0.093700
     14 H3          -2.4450    -2.1810    -0.0090 hn         1 1P8       0.175000
     15 H4           0.2840    -1.8560    -0.0370 ha         1 1P8       0.138000
     16 H5          -0.9340     2.9750     0.0710 ha         1 1P8       0.123000
     17 H6           1.4390     2.3000     0.0310 ha         1 1P8       0.134000
@<TRIPOS>BOND
     1     1     2 2   
     2     2     3 1   
     3     2     4 1   
     4     3     9 1   
     5     3    12 1   
     6     3    13 1   
     7     4     5 1   
     8     4    14 1   
     9     5     6 ar  
    10     5     9 ar  
    11     6     7 ar  
    12     6    15 1   
    13     7     8 1   
    14     7    11 ar  
    15     9    10 ar  
    16    10    11 ar  
    17    10    16 1   
    18    11    17 1   
@<TRIPOS>SUBSTRUCTURE
     1 1P8         1 TEMP              0 ****  ****    0 ROOT
