@<TRIPOS>MOLECULE
1P8
   17    18     1     0     0
SMALL
No Charge or Current Charge


@<TRIPOS>ATOM
      1 O8          -4.7770    -0.9020     0.0450 o          1 1P8      -0.518000
      2 C7          -3.6460    -0.4340     0.0400 c          1 1P8       0.565000
      3 C6          -3.1690     1.0540     0.0620 c5         1 1P8      -0.120100
      4 N9          -2.4610    -1.1420     0.0110 ns         1 1P8      -0.150000
      5 C10         -1.2880    -0.3950     0.0110 ca         1 1P8      -0.026000
      6 C11          0.0450    -0.8170    -0.0130 ca         1 1P8      -0.124000
      7 C2           1.0410     0.1800    -0.0060 ca         1 1P8       0.015100
      8 Br1          2.8860    -0.3230    -0.0390 br         1 1P8      -0.092100
      9 C5          -1.6480     0.9350     0.0410 ca         1 1P8      -0.134300
     10 C4          -0.6700     1.9400     0.0490 ca         1 1P8      -0.057000
     11 C3           0.6870     1.5500     0.0240 ca         1 1P8      -0.116000
     12 H1          -3.5910     1.5750    -0.8030 hc         1 1P8       0.093700
     13 H2          -3.5690     1.5410     0.9570 hc         1 1P8       0.093700
     14 H3          -2.4470    -2.1530    -0.0080 hn         1 1P8       0.175000
     15 H4           0.3030    -1.8730    -0.0370 ha         1 1P8       0.138000
     16 H5          -0.9490     2.9920     0.0730 ha         1 1P8       0.123000
     17 H6           1.4660     2.3100     0.0300 ha         1 1P8       0.134000
@<TRIPOS>BOND
     1     1     2 2   
     2     2     3 1   
     3     2     4 1   
     4     3     9 1   
     5     3    12 1   
     6     3    13 1   
     7     4     5 1   
     8     4    14 1   
     9     5     6 ar  
    10     5     9 ar  
    11     6     7 ar  
    12     6    15 1   
    13     7     8 1   
    14     7    11 ar  
    15     9    10 ar  
    16    10    11 ar  
    17    10    16 1   
    18    11    17 1   
@<TRIPOS>SUBSTRUCTURE
     1 1P8         1 TEMP              0 ****  ****    0 ROOT
