@<TRIPOS>MOLECULE
1P9
   51    54     1     0     0
SMALL
abcg2


@<TRIPOS>ATOM
      1 O22         60.4360    59.2900     0.6910 o          1 1P9      -0.552000
      2 C21         61.0870    59.5230    -0.3120 c          1 1P9       0.562000
      3 N20         61.3570    60.7690    -0.8160 ns         1 1P9      -0.152000
      4 C23         61.7530    58.5130    -1.2450 c5         1 1P9      -0.112100
      5 C24         62.3980    59.3780    -2.2890 ca         1 1P9      -0.145300
      6 C19         62.1280    60.7150    -1.9790 ca         1 1P9      -0.045000
      7 C18         62.5870    61.7670    -2.7530 ca         1 1P9      -0.129000
      8 C16         63.3410    61.4160    -3.8690 ca         1 1P9       0.025100
      9 BR1         64.0090    62.8180    -4.9940 br         1 1P9      -0.070100
     10 C15         63.6320    60.1020    -4.2060 ca         1 1P9      -0.064000
     11 C14         63.1550    59.0590    -3.4030 ca         1 1P9      -0.054300
     12 C13         63.4600    57.6080    -3.7060 c3         1 1P9       0.172300
     13 N12         64.0840    57.3980    -4.9880 n          1 1P9      -0.310000
     14 C10         65.4540    57.2850    -5.1640 c          1 1P9       0.599000
     15 O11         66.2950    57.2420    -4.2720 o          1 1P9      -0.561000
     16 C25         63.4490    57.4160    -6.2210 ca         1 1P9      -0.008400
     17 C30         64.4510    57.2960    -7.2010 ca         1 1P9       0.053600
     18 C29         64.1180    57.2690    -8.5460 ca         1 1P9      -0.091000
     19 C28         62.7670    57.3770    -8.8850 ca         1 1P9      -0.116000
     20 C27         61.7800    57.5090    -7.9100 ca         1 1P9      -0.130000
     21 C26         62.1100    57.5320    -6.5530 ca         1 1P9      -0.117000
     22 N9          65.6690    57.2270    -6.5290 n          1 1P9      -0.269000
     23 C4          67.0160    57.1530    -7.1060 c3         1 1P9       0.141700
     24 C5          67.3170    58.3810    -7.9710 c3         1 1P9      -0.218400
     25 C6          67.0570    59.7080    -7.2310 c          1 1P9       0.704000
     26 O8          66.1840    60.4750    -7.7150 o          1 1P9      -0.727000
     27 O7          67.7370    59.9230    -6.1960 o          1 1P9      -0.727000
     28 C3          67.2420    55.8340    -7.8480 c3         1 1P9      -0.092400
     29 C2          66.9660    54.5920    -7.0050 c3         1 1P9      -0.079400
     30 C1          67.2600    53.2980    -7.7580 c3         1 1P9      -0.086100
     31 H1          61.0300    61.6210    -0.3830 hn         1 1P9       0.166000
     32 H2          60.9970    57.8330    -1.6480 hc         1 1P9       0.084700
     33 H3          62.4640    57.9050    -0.6790 hc         1 1P9       0.084700
     34 H4          62.3730    62.7960    -2.5080 ha         1 1P9       0.127000
     35 H5          64.2180    59.8920    -5.0880 ha         1 1P9       0.183000
     36 H6          62.5410    57.0200    -3.6590 h1         1 1P9       0.064700
     37 H7          64.1350    57.2100    -2.9460 h1         1 1P9       0.064700
     38 H8          64.8680    57.1730    -9.3160 ha         1 1P9       0.126000
     39 H9          62.4860    57.3610    -9.9300 ha         1 1P9       0.101000
     40 H10         60.7430    57.5970    -8.2040 ha         1 1P9       0.099000
     41 H11         61.3500    57.6410    -5.7920 ha         1 1P9       0.108000
     42 H12         67.6730    57.1800    -6.2380 h1         1 1P9       0.095700
     43 H13         66.7380    58.3530    -8.8930 hc         1 1P9       0.030200
     44 H14         68.3750    58.3330    -8.2410 hc         1 1P9       0.030200
     45 H16         66.6310    55.8050    -8.7540 hc         1 1P9       0.037700
     46 H17         68.2840    55.8270    -8.1810 hc         1 1P9       0.037700
     47 H18         67.5680    54.6350    -6.0910 hc         1 1P9       0.044200
     48 H19         65.9200    54.5970    -6.6840 hc         1 1P9       0.044200
     49 H20         67.0530    52.4220    -7.1390 hc         1 1P9       0.023033
     50 H21         66.6460    53.2230    -8.6590 hc         1 1P9       0.023033
     51 H22         68.3080    53.2520    -8.0650 hc         1 1P9       0.023033
@<TRIPOS>BOND
     1     1     2 2   
     2     2     3 1   
     3     2     4 1   
     4     3     6 1   
     5     3    31 1   
     6     4     5 1   
     7     4    32 1   
     8     4    33 1   
     9     5     6 ar  
    10     5    11 ar  
    11     6     7 ar  
    12     7     8 ar  
    13     7    34 1   
    14     8     9 1   
    15     8    10 ar  
    16    10    11 ar  
    17    10    35 1   
    18    11    12 1   
    19    12    13 1   
    20    12    36 1   
    21    12    37 1   
    22    13    14 1   
    23    13    16 1   
    24    14    15 2   
    25    14    22 1   
    26    16    17 ar  
    27    16    21 ar  
    28    17    18 ar  
    29    17    22 1   
    30    18    19 ar  
    31    18    38 1   
    32    19    20 ar  
    33    19    39 1   
    34    20    21 ar  
    35    20    40 1   
    36    21    41 1   
    37    22    23 1   
    38    23    24 1   
    39    23    28 1   
    40    23    42 1   
    41    24    25 1   
    42    24    43 1   
    43    24    44 1   
    44    25    26 1   
    45    25    27 1   
    46    28    29 1   
    47    28    45 1   
    48    28    46 1   
    49    29    30 1   
    50    29    47 1   
    51    29    48 1   
    52    30    49 1   
    53    30    50 1   
    54    30    51 1   
@<TRIPOS>SUBSTRUCTURE
     1 1P9         1 TEMP              0 ****  ****    0 ROOT
