@<TRIPOS>MOLECULE
1P9
   51    54     1     0     0
SMALL
No Charge or Current Charge


@<TRIPOS>ATOM
      1 O22         59.2110    59.2580    -0.6100 o          1 1P9      -0.552000
      2 C21         60.2370    59.4920    -1.2390 c          1 1P9       0.562000
      3 N20         60.6850    60.7290    -1.6530 ns         1 1P9      -0.152000
      4 C23         61.3430    58.5230    -1.7660 c5         1 1P9      -0.112100
      5 C24         62.3360    59.4570    -2.4590 ca         1 1P9      -0.145300
      6 C19         61.8840    60.7560    -2.3560 ca         1 1P9      -0.045000
      7 C18         62.5760    61.8440    -2.8950 ca         1 1P9      -0.129000
      8 C16         63.7840    61.5750    -3.5670 ca         1 1P9       0.025100
      9 Br1         64.7830    63.0120    -4.3360 br         1 1P9      -0.070100
     10 C15         64.2630    60.2490    -3.6810 ca         1 1P9      -0.064000
     11 C14         63.5390    59.1650    -3.1270 ca         1 1P9      -0.054300
     12 C13         64.0540    57.7340    -3.2630 c3         1 1P9       0.172300
     13 N12         64.4490    57.3830    -4.6380 n          1 1P9      -0.310000
     14 C10         65.7730    57.1620    -5.0320 c          1 1P9       0.599000
     15 O11         66.7490    57.0510    -4.3020 o          1 1P9      -0.561000
     16 C25         63.6180    57.5500    -5.7780 ca         1 1P9      -0.008400
     17 C30         64.4220    57.3940    -6.9030 ca         1 1P9       0.053600
     18 C29         63.8510    57.1930    -8.1700 ca         1 1P9      -0.091000
     19 C28         62.4460    57.2520    -8.2880 ca         1 1P9      -0.116000
     20 C27         61.6350    57.4090    -7.1410 ca         1 1P9      -0.130000
     21 C26         62.2200    57.5100    -5.8620 ca         1 1P9      -0.117000
     22 N9          65.7500    57.1370    -6.4340 n          1 1P9      -0.269000
     23 C4          66.9830    57.1430    -7.2570 c3         1 1P9       0.141700
     24 C5          67.1620    58.4430    -8.0830 c3         1 1P9      -0.218400
     25 C6          67.3560    59.6350    -7.1390 c          1 1P9       0.704000
     26 O8          66.3760    60.2820    -6.8090 o          1 1P9      -0.727000
     27 O7          68.4860    59.8650    -6.7380 o          1 1P9      -0.727000
     28 C3          67.1300    55.8630    -8.1230 c3         1 1P9      -0.092400
     29 C2          67.0240    54.5440    -7.3210 c3         1 1P9      -0.079400
     30 C1          67.2420    53.2920    -8.1910 c3         1 1P9      -0.086100
     31 H1          60.1680    61.5750    -1.4550 hn         1 1P9       0.166000
     32 H2          60.8790    57.7870    -2.4310 hc         1 1P9       0.084700
     33 H3          61.7630    57.9700    -0.9190 hc         1 1P9       0.084700
     34 H4          62.1960    62.8590    -2.8000 ha         1 1P9       0.127000
     35 H5          65.1960    60.0670    -4.2100 ha         1 1P9       0.183000
     36 H6          63.2790    57.0270    -2.9440 h1         1 1P9       0.064700
     37 H7          64.9100    57.6020    -2.5900 h1         1 1P9       0.064700
     38 H8          64.4640    56.9970    -9.0430 ha         1 1P9       0.126000
     39 H9          61.9820    57.1290    -9.2640 ha         1 1P9       0.101000
     40 H10         60.5520    57.4050    -7.2400 ha         1 1P9       0.099000
     41 H11         61.6030    57.5490    -4.9680 ha         1 1P9       0.108000
     42 H12         67.8320    57.1160    -6.5590 h1         1 1P9       0.095700
     43 H13         66.2650    58.5700    -8.6990 hc         1 1P9       0.030200
     44 H14         68.0750    58.2920    -8.6710 hc         1 1P9       0.030200
     45 H16         66.3790    55.8590    -8.9190 hc         1 1P9       0.037700
     46 H17         68.1070    55.8880    -8.6220 hc         1 1P9       0.037700
     47 H18         67.7630    54.5490    -6.5100 hc         1 1P9       0.044200
     48 H19         66.0340    54.4750    -6.8510 hc         1 1P9       0.044200
     49 H20         67.1550    52.3840    -7.5820 hc         1 1P9       0.023033
     50 H21         66.4940    53.2410    -8.9910 hc         1 1P9       0.023033
     51 H22         68.2390    53.3050    -8.6480 hc         1 1P9       0.023033
@<TRIPOS>BOND
     1     1     2 2   
     2     2     3 1   
     3     2     4 1   
     4     3     6 1   
     5     3    31 1   
     6     4     5 1   
     7     4    32 1   
     8     4    33 1   
     9     5     6 ar  
    10     5    11 ar  
    11     6     7 ar  
    12     7     8 ar  
    13     7    34 1   
    14     8     9 1   
    15     8    10 ar  
    16    10    11 ar  
    17    10    35 1   
    18    11    12 1   
    19    12    13 1   
    20    12    36 1   
    21    12    37 1   
    22    13    14 1   
    23    13    16 1   
    24    14    15 2   
    25    14    22 1   
    26    16    17 ar  
    27    16    21 ar  
    28    17    18 ar  
    29    17    22 1   
    30    18    19 ar  
    31    18    38 1   
    32    19    20 ar  
    33    19    39 1   
    34    20    21 ar  
    35    20    40 1   
    36    21    41 1   
    37    22    23 1   
    38    23    24 1   
    39    23    28 1   
    40    23    42 1   
    41    24    25 1   
    42    24    43 1   
    43    24    44 1   
    44    25    26 1   
    45    25    27 1   
    46    28    29 1   
    47    28    45 1   
    48    28    46 1   
    49    29    30 1   
    50    29    47 1   
    51    29    48 1   
    52    30    49 1   
    53    30    50 1   
    54    30    51 1   
@<TRIPOS>SUBSTRUCTURE
     1 1P9         1 TEMP              0 ****  ****    0 ROOT
