@<TRIPOS>MOLECULE
1PA
   27    27     1     0     0
SMALL
bcc


@<TRIPOS>ATOM
      1 N           27.0860    -2.7660    -1.5040 n8         1 1PA      -0.865800
      2 CA          26.7680    -1.6230    -0.6640 c3         1 1PA       0.019500
      3 CB          27.3030    -0.3330    -1.3100 c3         1 1PA      -0.007100
      4 CG          28.7950    -0.3050    -1.4750 ca         1 1PA      -0.070300
      5 CD1         29.6240    -0.0010    -0.3970 ca         1 1PA      -0.132000
      6 CE1         31.0040     0.0330    -0.5380 ca         1 1PA      -0.139000
      7 CD2         29.4050    -0.5780    -2.6970 ca         1 1PA      -0.132000
      8 CE2         30.7850    -0.5430    -2.8370 ca         1 1PA      -0.139000
      9 CZ          31.6150    -0.2360    -1.7620 ca         1 1PA      -0.020300
     10 CH          33.1040    -0.1910    -1.9070 c3         1 1PA      -0.177100
     11 CO          33.8280    -1.5590    -1.7630 c          1 1PA       0.933600
     12 O1          33.1520    -2.5890    -1.9310 o          1 1PA      -0.841800
     13 O2          35.0500    -1.4880    -1.5230 o          1 1PA      -0.841800
     14 C           25.2610    -1.4190    -0.3560 c          1 1PA       0.899600
     15 O           24.4460    -1.9060    -1.1650 o          1 1PA      -0.853300
     16 OXT         24.9970    -0.7460     0.6620 o          1 1PA      -0.853300
     17 H           26.8610    -3.6130    -0.9960 hn         1 1PA       0.317300
     18 H2          26.4410    -2.7600    -2.2870 hn         1 1PA       0.317300
     19 HA          27.2930    -1.7540     0.2890 h1         1 1PA       0.045700
     20 HB2         26.8220    -0.2020    -2.2850 hc         1 1PA       0.034200
     21 HB3         26.9910     0.5140    -0.6940 hc         1 1PA       0.034200
     22 HD1         29.1820     0.2250     0.5680 ha         1 1PA       0.108500
     23 HE1         31.6190     0.2840     0.3200 ha         1 1PA       0.108500
     24 HD2         28.7870    -0.8100    -3.5570 ha         1 1PA       0.108500
     25 HE2         31.2240    -0.7480    -3.8070 ha         1 1PA       0.108500
     26 HH2         33.3640     0.1990    -2.8970 hc         1 1PA       0.018200
     27 HH3         33.5320     0.5130    -1.1890 hc         1 1PA       0.018200
@<TRIPOS>BOND
     1     1     2 1   
     2     1    17 1   
     3     1    18 1   
     4     2     3 1   
     5     2    14 1   
     6     2    19 1   
     7     3     4 1   
     8     3    20 1   
     9     3    21 1   
    10     4     5 ar  
    11     4     7 ar  
    12     5     6 ar  
    13     5    22 1   
    14     6     9 ar  
    15     6    23 1   
    16     7     8 ar  
    17     7    24 1   
    18     8     9 ar  
    19     8    25 1   
    20     9    10 1   
    21    10    11 1   
    22    10    26 1   
    23    10    27 1   
    24    11    12 1   
    25    11    13 1   
    26    14    15 1   
    27    14    16 1   
@<TRIPOS>SUBSTRUCTURE
     1 1PA         1 TEMP              0 ****  ****    0 ROOT
