@<TRIPOS>MOLECULE
1PD
   57    60     1     0     0
SMALL
abcg2


@<TRIPOS>ATOM
      1 O31          2.1720    -3.1130    -1.4590 o          1 1PD      -0.529000
      2 S35          1.8370    -1.7120    -1.6360 sy         1 1PD       1.203600
      3 O30          1.8070    -1.1820    -2.9870 o          1 1PD      -0.529000
      4 C8           2.8190    -0.6660    -0.6440 ca         1 1PD      -0.296500
      5 C3           4.1680    -0.9300    -0.4950 ca         1 1PD      -0.028000
      6 C7           4.9590    -0.0260     0.2060 ca         1 1PD       0.117100
      7 O33          6.2590    -0.3410     0.3160 os         1 1PD      -0.306100
      8 C18          7.1030     0.5230     1.0320 c3         1 1PD       0.071600
      9 C15          8.5170    -0.0280     0.9350 c          1 1PD       0.607100
     10 O29          8.8410    -0.8400     0.0880 o          1 1PD      -0.561100
     11 N27          9.3540     0.4960     1.8380 nt         1 1PD      -0.616000
     12 C2           4.3740     1.1290     0.7340 ca         1 1PD      -0.147000
     13 N25          0.3940    -1.4420    -0.8780 nu         1 1PD      -0.906300
     14 C13          0.0090    -0.1700    -0.5050 ce         1 1PD       0.762500
     15 N23          0.8470     0.7410    -0.1710 nf         1 1PD      -0.634100
     16 C6           2.1960     0.4720    -0.1120 ca         1 1PD       0.205400
     17 C1           3.0230     1.3670     0.5710 ca         1 1PD      -0.065000
     18 C11         -1.4410     0.0920    -0.4480 cc         1 1PD      -0.333800
     19 C12         -1.9520     1.3720    -0.3990 cd         1 1PD       0.166500
     20 O32         -1.1790     2.4320    -0.4770 oh         1 1PD      -0.457100
     21 C14         -2.3680    -1.0190    -0.4640 c          1 1PD       0.561200
     22 O28         -2.0410    -2.2070    -0.5160 o          1 1PD      -0.557000
     23 N26         -3.7080    -0.6950    -0.4340 n          1 1PD      -0.102800
     24 C20         -4.7190    -1.7550    -0.4250 c3         1 1PD       0.111000
     25 C19         -5.0540    -2.1950     0.9930 c3         1 1PD      -0.095400
     26 C21         -6.1380    -3.2740     1.0450 c3         1 1PD      -0.056700
     27 C17         -5.6700    -4.5860     0.4220 c3         1 1PD      -0.090100
     28 C16         -6.5710    -3.5020     2.4900 c3         1 1PD      -0.090100
     29 N24         -4.1800     0.5190    -0.3120 nc         1 1PD      -0.381300
     30 C10         -3.3760     1.5300    -0.2810 cd         1 1PD       0.347200
     31 C9          -3.9860     2.8540    -0.1560 cd         1 1PD      -0.308900
     32 S34         -5.3620     3.3000    -1.0840 ss         1 1PD       0.056600
     33 C5          -5.3800     4.8140    -0.2830 cd         1 1PD       0.407300
     34 N22         -4.4480     4.9840     0.5990 nc         1 1PD      -0.624000
     35 C4          -3.6560     3.8820     0.6820 cc         1 1PD       0.282900
     36 H3           4.6150    -1.8210    -0.9180 ha         1 1PD       0.151000
     37 H18          7.1010     1.5340     0.6070 h1         1 1PD       0.048700
     38 H18A         6.7930     0.6060     2.0800 h1         1 1PD       0.048700
     39 HN27         9.0450     1.1370     2.5490 hn         1 1PD       0.317000
     40 HN2A        10.3310     0.2510     1.8310 hn         1 1PD       0.317000
     41 H2           4.9580     1.8530     1.2850 ha         1 1PD       0.115000
     42 HN25        -0.3520    -2.1480    -0.9480 hn         1 1PD       0.561000
     43 H1           2.5790     2.2580     0.9950 ha         1 1PD       0.129000
     44 HO32        -1.7020     3.2420    -0.5800 ho         1 1PD       0.489000
     45 H20         -5.5970    -1.3450    -0.9210 h1         1 1PD       0.076700
     46 H20A        -4.3490    -2.5790    -1.0310 h1         1 1PD       0.076700
     47 H19         -4.1520    -2.5660     1.4890 hc         1 1PD       0.055700
     48 H19A        -5.3900    -1.3190     1.5550 hc         1 1PD       0.055700
     49 H21         -7.0070    -2.9120     0.4830 hc         1 1PD       0.044700
     50 H17         -6.4460    -5.3490     0.4900 hc         1 1PD       0.036700
     51 H17A        -5.4120    -4.4810    -0.6330 hc         1 1PD       0.036700
     52 H17B        -4.7860    -4.9610     0.9430 hc         1 1PD       0.036700
     53 H16         -6.9330    -2.5820     2.9510 hc         1 1PD       0.036700
     54 H16A        -7.3720    -4.2400     2.5510 hc         1 1PD       0.036700
     55 H16B        -5.7360    -3.8690     3.0920 hc         1 1PD       0.036700
     56 H5          -6.1320     5.5550    -0.5200 h5         1 1PD       0.060100
     57 H4          -2.8510     3.8560     1.4040 h4         1 1PD       0.052100
@<TRIPOS>BOND
     1     1     2 2   
     2     2     3 2   
     3     2     4 1   
     4     2    13 1   
     5     4     5 ar  
     6     4    16 ar  
     7     5     6 ar  
     8     5    36 1   
     9     6     7 1   
    10     6    12 ar  
    11     7     8 1   
    12     8     9 1   
    13     8    37 1   
    14     8    38 1   
    15     9    10 2   
    16     9    11 1   
    17    11    39 1   
    18    11    40 1   
    19    12    17 ar  
    20    12    41 1   
    21    13    14 1   
    22    13    42 1   
    23    14    15 2   
    24    14    18 1   
    25    15    16 1   
    26    16    17 ar  
    27    17    43 1   
    28    18    19 2   
    29    18    21 1   
    30    19    20 1   
    31    19    30 1   
    32    20    44 1   
    33    21    22 2   
    34    21    23 1   
    35    23    24 1   
    36    23    29 1   
    37    24    25 1   
    38    24    45 1   
    39    24    46 1   
    40    25    26 1   
    41    25    47 1   
    42    25    48 1   
    43    26    27 1   
    44    26    28 1   
    45    26    49 1   
    46    27    50 1   
    47    27    51 1   
    48    27    52 1   
    49    28    53 1   
    50    28    54 1   
    51    28    55 1   
    52    29    30 2   
    53    30    31 1   
    54    31    32 1   
    55    31    35 2   
    56    32    33 1   
    57    33    34 2   
    58    33    56 1   
    59    34    35 1   
    60    35    57 1   
@<TRIPOS>SUBSTRUCTURE
     1 1PD         1 TEMP              0 ****  ****    0 ROOT
