@<TRIPOS>MOLECULE
1PD
   57    60     1     0     0
SMALL
No Charge or Current Charge


@<TRIPOS>ATOM
      1 O31          2.2880    -3.6400     1.2630 o          1 1PD      -0.529000
      2 S35          1.6940    -2.4500     0.6520 sy         1 1PD       1.203600
      3 O30          1.1300    -2.4780    -0.6970 o          1 1PD      -0.529000
      4 C8           2.7880    -1.0660     0.8180 ca         1 1PD      -0.296500
      5 C3           4.0980    -1.0670     0.2960 ca         1 1PD      -0.028000
      6 C7           4.9160     0.0670     0.4590 ca         1 1PD       0.117100
      7 O33          6.1910     0.0270    -0.0690 os         1 1PD      -0.306100
      8 C18          7.1100     1.1380     0.0450 c3         1 1PD       0.071600
      9 C15          8.4720     0.8430    -0.6270 c          1 1PD       0.607100
     10 O29          8.7510    -0.2040    -1.1920 o          1 1PD      -0.561100
     11 N27          9.3910     1.8370    -0.5630 nt         1 1PD      -0.616000
     12 C2           4.4130     1.1970     1.1470 ca         1 1PD      -0.147000
     13 N25          0.3930    -2.0880     1.6060 nu         1 1PD      -0.906300
     14 C13          0.0670    -0.7640     1.4840 ce         1 1PD       0.762500
     15 N23          0.9830    -0.0040     2.0120 nf         1 1PD      -0.634100
     16 C6           2.2940     0.0440     1.4990 ca         1 1PD       0.205400
     17 C1           3.1030     1.1800     1.6660 ca         1 1PD      -0.065000
     18 C11         -1.2060    -0.3580     0.8510 cc         1 1PD      -0.333800
     19 C12         -1.5400     0.9810     0.5880 cd         1 1PD       0.166500
     20 O32         -0.6240     1.9550     0.8070 oh         1 1PD      -0.457100
     21 C14         -2.1830    -1.4200     0.4690 c          1 1PD       0.561200
     22 O28         -2.0040    -2.6190     0.6460 o          1 1PD      -0.557000
     23 N26         -3.3680    -0.9530    -0.1400 n          1 1PD      -0.102800
     24 C20         -4.3940    -1.9190    -0.6010 c3         1 1PD       0.111000
     25 C19         -5.5200    -2.1410     0.4360 c3         1 1PD      -0.095400
     26 C21         -6.6700    -3.0660    -0.0460 c3         1 1PD      -0.056700
     27 C17         -6.1890    -4.5010    -0.3690 c3         1 1PD      -0.090100
     28 C16         -7.8240    -3.0950     0.9830 c3         1 1PD      -0.090100
     29 N24         -3.7000     0.3550    -0.3580 nc         1 1PD      -0.381300
     30 C10         -2.8600     1.3090     0.0120 cd         1 1PD       0.347200
     31 C9          -3.3740     2.6560    -0.1970 cd         1 1PD      -0.308900
     32 S34         -4.8880     2.9860    -1.0390 ss         1 1PD       0.056600
     33 C5          -4.6090     4.6910    -0.7110 cd         1 1PD       0.407300
     34 N22         -3.5170     4.9700    -0.0050 nc         1 1PD      -0.624000
     35 C4          -2.8290     3.8220     0.2970 cc         1 1PD       0.282900
     36 H3           4.4840    -1.9350    -0.2340 ha         1 1PD       0.151000
     37 H18          6.6940     2.0340    -0.4330 h1         1 1PD       0.048700
     38 H18A         7.3060     1.3720     1.0990 h1         1 1PD       0.048700
     39 HN27         9.1700     2.7060    -0.0980 hn         1 1PD       0.317000
     40 HN2A        10.2970     1.6980    -0.9850 hn         1 1PD       0.317000
     41 H2           5.0170     2.0880     1.2900 ha         1 1PD       0.115000
     42 HN25        -0.3310    -2.6680     1.2060 hn         1 1PD       0.561000
     43 H1           2.7140     2.0450     2.1970 ha         1 1PD       0.129000
     44 HO32        -0.7920     2.6770     0.1680 ho         1 1PD       0.489000
     45 H20         -4.8370    -1.5390    -1.5310 h1         1 1PD       0.076700
     46 H20A        -3.9160    -2.8760    -0.8470 h1         1 1PD       0.076700
     47 H19         -5.0830    -2.5510     1.3550 hc         1 1PD       0.055700
     48 H19A        -5.9420    -1.1630     0.7000 hc         1 1PD       0.055700
     49 H21         -7.0760    -2.6390    -0.9720 hc         1 1PD       0.044700
     50 H17         -7.0350    -5.1340    -0.6660 hc         1 1PD       0.036700
     51 H17A        -5.4720    -4.5040    -1.1980 hc         1 1PD       0.036700
     52 H17B        -5.7110    -4.9600     0.5050 hc         1 1PD       0.036700
     53 H16         -8.2040    -2.0830     1.1680 hc         1 1PD       0.036700
     54 H16A        -8.6570    -3.7050     0.6150 hc         1 1PD       0.036700
     55 H16B        -7.4860    -3.5150     1.9380 hc         1 1PD       0.036700
     56 H5          -5.3180     5.4260    -1.0710 h5         1 1PD       0.060100
     57 H4          -1.9500     3.9460     0.9120 h4         1 1PD       0.052100
@<TRIPOS>BOND
     1     1     2 2   
     2     2     3 2   
     3     2     4 1   
     4     2    13 1   
     5     4     5 ar  
     6     4    16 ar  
     7     5     6 ar  
     8     5    36 1   
     9     6     7 1   
    10     6    12 ar  
    11     7     8 1   
    12     8     9 1   
    13     8    37 1   
    14     8    38 1   
    15     9    10 2   
    16     9    11 1   
    17    11    39 1   
    18    11    40 1   
    19    12    17 ar  
    20    12    41 1   
    21    13    14 1   
    22    13    42 1   
    23    14    15 2   
    24    14    18 1   
    25    15    16 1   
    26    16    17 ar  
    27    17    43 1   
    28    18    19 2   
    29    18    21 1   
    30    19    20 1   
    31    19    30 1   
    32    20    44 1   
    33    21    22 2   
    34    21    23 1   
    35    23    24 1   
    36    23    29 1   
    37    24    25 1   
    38    24    45 1   
    39    24    46 1   
    40    25    26 1   
    41    25    47 1   
    42    25    48 1   
    43    26    27 1   
    44    26    28 1   
    45    26    49 1   
    46    27    50 1   
    47    27    51 1   
    48    27    52 1   
    49    28    53 1   
    50    28    54 1   
    51    28    55 1   
    52    29    30 2   
    53    30    31 1   
    54    31    32 1   
    55    31    35 2   
    56    32    33 1   
    57    33    34 2   
    58    33    56 1   
    59    34    35 1   
    60    35    57 1   
@<TRIPOS>SUBSTRUCTURE
     1 1PD         1 TEMP              0 ****  ****    0 ROOT
