@<TRIPOS>MOLECULE
1PE
   38    37     1     0     0
SMALL
No Charge or Current Charge


@<TRIPOS>ATOM
      1 OH2          0.1500    -0.5610     6.9300 oh         1 1PE      -0.709000
      2 C12         -0.8860    -1.0290     6.0440 c3         1 1PE       0.163600
      3 C22         -1.3650     0.0880     5.0780 c3         1 1PE       0.160100
      4 OH3         -0.3060     0.4020     4.1510 os         1 1PE      -0.434000
      5 C13          0.5780     1.6650     2.2650 c3         1 1PE       0.161600
      6 C23         -0.6310     1.4380     3.2030 c3         1 1PE       0.161600
      7 OH4          0.6950     0.5420     1.3670 os         1 1PE      -0.435000
      8 C14          1.7970    -0.6240    -0.4640 c3         1 1PE       0.161600
      9 C24          1.7960     0.6300     0.4420 c3         1 1PE       0.161600
     10 OH5          0.6930    -0.5390    -1.3870 os         1 1PE      -0.435000
     11 C15         -0.6360    -1.4380    -3.2200 c3         1 1PE       0.161600
     12 C25          0.5760    -1.6620    -2.2840 c3         1 1PE       0.161600
     13 OH6         -0.3150    -0.4010    -4.1680 os         1 1PE      -0.434000
     14 C16         -0.9020     1.0290    -6.0610 c3         1 1PE       0.163600
     15 C26         -1.3770    -0.0890    -5.0930 c3         1 1PE       0.160100
     16 OH7          0.1330     0.5620    -6.9490 oh         1 1PE      -0.709000
     17 HO2          0.4420    -1.3360     7.4650 ho         1 1PE       0.499000
     18 H121        -0.5290    -1.8830     5.4530 h1         1 1PE       0.025200
     19 H122        -1.7490    -1.3740     6.6300 h1         1 1PE       0.025200
     20 H221        -2.2510    -0.2690     4.5360 h1         1 1PE       0.025950
     21 H222        -1.6550     0.9740     5.6580 h1         1 1PE       0.025950
     22 H131         0.4160     2.5890     1.6960 h1         1 1PE       0.028200
     23 H132         1.4900     1.7880     2.8640 h1         1 1PE       0.028200
     24 H231        -1.5130     1.1660     2.6070 h1         1 1PE       0.027200
     25 H232        -0.8520     2.3770     3.7290 h1         1 1PE       0.027200
     26 H141         2.7470    -0.6650    -1.0130 h1         1 1PE       0.027950
     27 H142         1.7230    -1.5260     0.1580 h1         1 1PE       0.027950
     28 H241         1.7190     1.5320    -0.1800 h1         1 1PE       0.027950
     29 H242         2.7480     0.6720     0.9880 h1         1 1PE       0.027950
     30 H151        -0.8560    -2.3770    -3.7440 h1         1 1PE       0.027200
     31 H152        -1.5160    -1.1670    -2.6220 h1         1 1PE       0.027200
     32 H251         1.4870    -1.7830    -2.8850 h1         1 1PE       0.028200
     33 H252         0.4170    -2.5870    -1.7140 h1         1 1PE       0.028200
     34 H161        -1.7670     1.3720    -6.6440 h1         1 1PE       0.025200
     35 H162        -0.5460     1.8840    -5.4700 h1         1 1PE       0.025200
     36 H261        -1.6660    -0.9760    -5.6720 h1         1 1PE       0.025950
     37 H262        -2.2620     0.2650    -4.5490 h1         1 1PE       0.025950
     38 HO7          0.4220     1.3380    -7.4840 ho         1 1PE       0.499000
@<TRIPOS>BOND
     1     1     2 1   
     2     1    17 1   
     3     2     3 1   
     4     2    18 1   
     5     2    19 1   
     6     3     4 1   
     7     3    20 1   
     8     3    21 1   
     9     4     6 1   
    10     5     6 1   
    11     5     7 1   
    12     5    22 1   
    13     5    23 1   
    14     6    24 1   
    15     6    25 1   
    16     7     9 1   
    17     8     9 1   
    18     8    10 1   
    19     8    26 1   
    20     8    27 1   
    21     9    28 1   
    22     9    29 1   
    23    10    12 1   
    24    11    12 1   
    25    11    13 1   
    26    11    30 1   
    27    11    31 1   
    28    12    32 1   
    29    12    33 1   
    30    13    15 1   
    31    14    15 1   
    32    14    16 1   
    33    14    34 1   
    34    14    35 1   
    35    15    36 1   
    36    15    37 1   
    37    16    38 1   
@<TRIPOS>SUBSTRUCTURE
     1 1PE         1 TEMP              0 ****  ****    0 ROOT
