@<TRIPOS>MOLECULE
1PE
   38    37     1     0     0
SMALL
abcg2


@<TRIPOS>ATOM
      1 OH2         -0.1830    -0.8850     6.4270 oh         1 1PE      -0.709000
      2 C12         -1.2970    -0.9780     5.5680 c3         1 1PE       0.163600
      3 C22         -1.4150     0.2860     4.7550 c3         1 1PE       0.160100
      4 OH3         -0.3100     0.4120     3.8960 os         1 1PE      -0.434000
      5 C13          0.8340     1.6450     2.2070 c3         1 1PE       0.161600
      6 C23         -0.3860     1.5560     3.0850 c3         1 1PE       0.161600
      7 OH4          0.8550     0.5690     1.3030 os         1 1PE      -0.435000
      8 C14          1.9630    -0.5910    -0.4630 c3         1 1PE       0.161600
      9 C24          1.9640     0.6140     0.4420 c3         1 1PE       0.161600
     10 OH5          0.8510    -0.5500    -1.3200 os         1 1PE      -0.435000
     11 C15         -0.3980    -1.5480    -3.0910 c3         1 1PE       0.161600
     12 C25          0.8260    -1.6310    -2.2170 c3         1 1PE       0.161600
     13 OH6         -0.3240    -0.4100    -3.9110 os         1 1PE      -0.434000
     14 C16         -1.3120     0.9600    -5.5980 c3         1 1PE       0.163600
     15 C26         -1.4280    -0.2960    -4.7740 c3         1 1PE       0.160100
     16 OH7         -0.1960     0.8630    -6.4530 oh         1 1PE      -0.709000
     17 HO2         -0.1300    -1.6990     6.9350 ho         1 1PE       0.499000
     18 H121        -1.2190    -1.8390     4.8910 h1         1 1PE       0.025200
     19 H122        -2.2350    -1.0950     6.1240 h1         1 1PE       0.025200
     20 H221        -2.3540     0.2410     4.1860 h1         1 1PE       0.025950
     21 H222        -1.4920     1.1560     5.4240 h1         1 1PE       0.025950
     22 H131         0.8030     2.6060     1.6750 h1         1 1PE       0.028200
     23 H132         1.7430     1.6550     2.8260 h1         1 1PE       0.028200
     24 H231        -1.2950     1.5410     2.4660 h1         1 1PE       0.027200
     25 H232        -0.4330     2.4710     3.6930 h1         1 1PE       0.027200
     26 H141         2.9030    -0.5870    -1.0340 h1         1 1PE       0.027950
     27 H142         1.9630    -1.5120     0.1380 h1         1 1PE       0.027950
     28 H241         1.9590     1.5350    -0.1590 h1         1 1PE       0.027950
     29 H242         2.9050     0.6110     1.0090 h1         1 1PE       0.027950
     30 H151        -0.4480    -2.4680    -3.6910 h1         1 1PE       0.027200
     31 H152        -1.3040    -1.5270    -2.4690 h1         1 1PE       0.027200
     32 H251         1.7320    -1.6440    -2.8400 h1         1 1PE       0.028200
     33 H252         0.7980    -2.5890    -1.6800 h1         1 1PE       0.028200
     34 H161        -2.2490     1.0690    -6.1590 h1         1 1PE       0.025200
     35 H162        -1.2400     1.8280    -4.9300 h1         1 1PE       0.025200
     36 H261        -1.5000    -1.1730    -5.4350 h1         1 1PE       0.025950
     37 H262        -2.3690    -0.2490    -4.2070 h1         1 1PE       0.025950
     38 HO7         -0.1340     1.6790    -6.9560 ho         1 1PE       0.499000
@<TRIPOS>BOND
     1     1     2 1   
     2     1    17 1   
     3     2     3 1   
     4     2    18 1   
     5     2    19 1   
     6     3     4 1   
     7     3    20 1   
     8     3    21 1   
     9     4     6 1   
    10     5     6 1   
    11     5     7 1   
    12     5    22 1   
    13     5    23 1   
    14     6    24 1   
    15     6    25 1   
    16     7     9 1   
    17     8     9 1   
    18     8    10 1   
    19     8    26 1   
    20     8    27 1   
    21     9    28 1   
    22     9    29 1   
    23    10    12 1   
    24    11    12 1   
    25    11    13 1   
    26    11    30 1   
    27    11    31 1   
    28    12    32 1   
    29    12    33 1   
    30    13    15 1   
    31    14    15 1   
    32    14    16 1   
    33    14    34 1   
    34    14    35 1   
    35    15    36 1   
    36    15    37 1   
    37    16    38 1   
@<TRIPOS>SUBSTRUCTURE
     1 1PE         1 TEMP              0 ****  ****    0 ROOT
