@<TRIPOS>MOLECULE
1PF
   64    68     1     0     0
SMALL
No Charge or Current Charge


@<TRIPOS>ATOM
      1 C10          1.0740     1.6840     0.1520 ca         1 1PF      -0.087800
      2 C14          4.6840     2.1850    -0.1620 ca         1 1PF      -0.038000
      3 C15          5.9920     1.7120    -0.3470 ca         1 1PF      -0.126000
      4 C16          6.2040     0.3270    -0.5120 ca         1 1PF      -0.058000
      5 C17          5.1150    -0.5740    -0.4810 ca         1 1PF      -0.249000
      6 C20          2.7880    -2.3450    -0.2730 c3         1 1PF       0.168600
      7 C22          1.3350    -4.4640    -0.3670 c6         1 1PF      -0.071400
      8 C23         -0.1070    -5.0300    -0.3340 c6         1 1PF      -0.072400
      9 C24         -0.8490    -4.6080     0.9580 c6         1 1PF      -0.075400
     10 C31         -5.1200     1.6330    -1.1300 c6         1 1PF       0.168800
     11 C30         -4.0730     0.5960    -1.5980 c6         1 1PF      -0.088400
     12 C28          0.5020     0.8750    -0.8480 ca         1 1PF      -0.044500
     13 C26          0.5990    -2.5080     1.0990 c6         1 1PF      -0.071400
     14 C25         -0.8440    -3.0700     1.1280 c6         1 1PF      -0.072400
     15 C18          3.8000    -0.0880    -0.2970 ca         1 1PF       0.209100
     16 N02         -6.3130     0.9690    -0.5360 n3         1 1PF      -0.718600
     17 C03         -5.9350     0.1040     0.6160 c6         1 1PF       0.168800
     18 C04         -4.9080    -0.9740     0.1980 c6         1 1PF      -0.088400
     19 C05         -3.6490    -0.3410    -0.4370 c6         1 1PF       0.176300
     20 O06         -2.9060     0.3750     0.5770 os         1 1PF      -0.352100
     21 C07         -1.6060     0.8030     0.3790 ca         1 1PF       0.164100
     22 C08         -1.0430     1.6310     1.3630 ca         1 1PF      -0.182500
     23 C09          0.2860     2.0770     1.2500 ca         1 1PF      -0.044500
     24 C11          2.4710     2.1080     0.0560 cc         1 1PF       0.001700
     25 N12          2.9160     3.4140     0.2050 na         1 1PF       0.008500
     26 N13          4.3070     3.5140     0.0550 nc         1 1PF      -0.288400
     27 C21          1.3420    -2.9180    -0.2070 c6         1 1PF      -0.063700
     28 C27          3.6280     1.3010    -0.1620 ca         1 1PF      -0.159000
     29 C29         -0.8260     0.4280    -0.7370 ca         1 1PF      -0.182500
     30 H1           6.8320     2.4020    -0.3520 ha         1 1PF       0.127000
     31 H2           7.2150    -0.0500    -0.6530 ha         1 1PF       0.107000
     32 H3           5.3090    -1.6360    -0.5950 ha         1 1PF       0.113000
     33 H4           3.2600    -2.6730    -1.2080 h1         1 1PF       0.037200
     34 H5           3.3740    -2.7290     0.5720 h1         1 1PF       0.037200
     35 H7           1.8170    -4.7460    -1.3140 hc         1 1PF       0.045700
     36 H8          -0.6640    -4.6730    -1.2120 hc         1 1PF       0.037450
     37 H9          -0.0790    -6.1250    -0.4070 hc         1 1PF       0.037450
     38 H10         -1.8830    -4.9770     0.9320 hc         1 1PF       0.039200
     39 H11         -0.3710    -5.0780     1.8290 hc         1 1PF       0.039200
     40 H12         -4.6550     2.3100    -0.3980 h1         1 1PF       0.037450
     41 H13         -5.4170     2.2460    -1.9930 h1         1 1PF       0.037450
     42 H14         -4.4970    -0.0040    -2.4140 hc         1 1PF       0.057700
     43 H15         -3.2030     1.1160    -2.0200 hc         1 1PF       0.057700
     44 H16          1.0960     0.5780    -1.7090 ha         1 1PF       0.120500
     45 H17          0.5590    -1.4140     1.1920 hc         1 1PF       0.045700
     46 H18          1.1540    -2.8720     1.9750 hc         1 1PF       0.045700
     47 H19         -1.4360    -2.6070     0.3270 hc         1 1PF       0.037450
     48 H20         -1.3320    -2.7960     2.0740 hc         1 1PF       0.037450
     49 H21         -7.6760     2.5170    -1.0680 h1         1 1PF       0.030700
     50 H22         -8.2650     1.4130     0.1920 h1         1 1PF       0.030700
     51 H23         -7.0320     2.6350     0.5870 h1         1 1PF       0.030700
     52 H25         -5.5100     0.7140     1.4270 h1         1 1PF       0.037450
     53 H26         -6.8250    -0.3980     1.0230 h1         1 1PF       0.037450
     54 H27         -4.6240    -1.5780     1.0700 hc         1 1PF       0.057700
     55 H28         -5.3730    -1.6630    -0.5190 hc         1 1PF       0.057700
     56 H29         -3.0260    -1.1590    -0.8220 h1         1 1PF       0.048700
     57 H30         -1.6380     1.9200     2.2240 ha         1 1PF       0.124500
     58 H31          0.7100     2.7030     2.0320 ha         1 1PF       0.120500
     59 H32          2.3430     4.2330     0.3780 hn         1 1PF       0.370000
     60 H33          0.8060    -2.4830    -1.0630 hc         1 1PF       0.054700
     61 H34         -1.2190    -0.2140    -1.5180 ha         1 1PF       0.124500
     62 O19          2.7030    -0.9150    -0.2270 os         1 1PF      -0.347100
     63 C01         -7.3760     1.9350    -0.1870 c3         1 1PF       0.153100
     64 H6           1.9300    -4.9250     0.4340 hc         1 1PF       0.045700
@<TRIPOS>BOND
     1     1    12 ar  
     2     1    23 ar  
     3     1    24 1   
     4     2     3 ar  
     5     2    26 2   
     6     2    28 ar  
     7     3     4 ar  
     8     3    30 1   
     9     4     5 ar  
    10     4    31 1   
    11     5    15 ar  
    12     5    32 1   
    13     6    27 1   
    14     6    33 1   
    15     6    34 1   
    16     6    62 1   
    17     7     8 1   
    18     7    27 1   
    19     7    35 1   
    20     7    64 1   
    21     8     9 1   
    22     8    36 1   
    23     8    37 1   
    24     9    14 1   
    25     9    38 1   
    26     9    39 1   
    27    10    11 1   
    28    10    16 1   
    29    10    40 1   
    30    10    41 1   
    31    11    19 1   
    32    11    42 1   
    33    11    43 1   
    34    12    29 ar  
    35    12    44 1   
    36    13    14 1   
    37    13    27 1   
    38    13    45 1   
    39    13    46 1   
    40    14    47 1   
    41    14    48 1   
    42    15    28 ar  
    43    15    62 1   
    44    16    17 1   
    45    16    63 1   
    46    17    18 1   
    47    17    52 1   
    48    17    53 1   
    49    18    19 1   
    50    18    54 1   
    51    18    55 1   
    52    19    20 1   
    53    19    56 1   
    54    20    21 1   
    55    21    22 ar  
    56    21    29 ar  
    57    22    23 ar  
    58    22    57 1   
    59    23    58 1   
    60    24    25 1   
    61    24    28 2   
    62    25    26 1   
    63    25    59 1   
    64    27    60 1   
    65    29    61 1   
    66    49    63 1   
    67    50    63 1   
    68    51    63 1   
@<TRIPOS>SUBSTRUCTURE
     1 1PF         1 TEMP              0 ****  ****    0 ROOT
