@<TRIPOS>MOLECULE
1PF
   64    68     1     0     0
SMALL
abcg2


@<TRIPOS>ATOM
      1 C10          0.9860     1.6990     0.1960 ca         1 1PF      -0.087800
      2 C14          4.6390     2.1180    -0.0720 ca         1 1PF      -0.038000
      3 C15          5.9780     1.6690    -0.1930 ca         1 1PF      -0.126000
      4 C16          6.1750     0.3240    -0.2990 ca         1 1PF      -0.058000
      5 C17          5.1070    -0.6160    -0.2900 ca         1 1PF      -0.249000
      6 C20          2.8740    -2.3930    -0.2730 c3         1 1PF       0.168600
      7 C22          1.6150    -4.5240    -0.5640 c6         1 1PF      -0.071400
      8 C23          0.2460    -5.1850    -0.6900 c6         1 1PF      -0.072400
      9 C24         -0.6430    -4.8630     0.5050 c6         1 1PF      -0.075400
     10 C31         -5.2630     1.4190    -1.2560 c6         1 1PF       0.168800
     11 C30         -4.2020     0.3330    -1.3550 c6         1 1PF      -0.088400
     12 C28          0.3510     0.7950    -0.6500 ca         1 1PF      -0.044500
     13 C26          0.6140    -2.7030     0.8460 c6         1 1PF      -0.071400
     14 C25         -0.7580    -3.3570     0.7150 c6         1 1PF      -0.072400
     15 C18          3.8040    -0.1980    -0.1810 ca         1 1PF       0.209100
     16 N02         -6.3960     0.9810    -0.4620 n3         1 1PF      -0.718600
     17 C03         -5.9930     0.6180     0.8840 c6         1 1PF       0.168800
     18 C04         -4.9620    -0.5000     0.8620 c6         1 1PF      -0.088400
     19 C05         -3.7480    -0.1430     0.0200 c6         1 1PF       0.176300
     20 O06         -3.0490     0.8830     0.7260 os         1 1PF      -0.352100
     21 C07         -1.7500     1.1200     0.4810 ca         1 1PF       0.164100
     22 C08         -1.1300     2.0520     1.3170 ca         1 1PF      -0.182500
     23 C09          0.2150     2.3310     1.1770 ca         1 1PF      -0.044500
     24 C11          2.4130     1.9910     0.0770 cc         1 1PF       0.001700
     25 N12          2.8870     3.2430     0.1630 na         1 1PF       0.008500
     26 N13          4.2040     3.3700     0.0760 nc         1 1PF      -0.288400
     27 C21          1.4920    -3.0120    -0.3660 c6         1 1PF      -0.063700
     28 C27          3.5550     1.1970    -0.0810 ca         1 1PF      -0.159000
     29 C29         -0.9960     0.4990    -0.5140 ca         1 1PF      -0.182500
     30 H1           6.8020     2.3700    -0.1920 ha         1 1PF       0.127000
     31 H2           7.1830    -0.0600    -0.3920 ha         1 1PF       0.107000
     32 H3           5.3490    -1.6670    -0.3670 ha         1 1PF       0.113000
     33 H4           3.4510    -2.6390    -1.1730 h1         1 1PF       0.037200
     34 H5           3.4220    -2.7880     0.5920 h1         1 1PF       0.037200
     35 H7           2.2170    -4.7390    -1.4510 hc         1 1PF       0.045700
     36 H8          -0.2370    -4.8320    -1.6080 hc         1 1PF       0.037450
     37 H9           0.3630    -6.2660    -0.7990 hc         1 1PF       0.037450
     38 H10         -1.6340    -5.3040     0.3680 hc         1 1PF       0.039200
     39 H11         -0.2200    -5.3220     1.4060 hc         1 1PF       0.039200
     40 H12         -4.8170     2.3450    -0.8520 h1         1 1PF       0.037450
     41 H13         -5.6160     1.6630    -2.2610 h1         1 1PF       0.037450
     42 H14         -4.6120    -0.5300    -1.8860 hc         1 1PF       0.057700
     43 H15         -3.3640     0.6970    -1.9530 hc         1 1PF       0.057700
     44 H16          0.9090     0.3070    -1.4360 ha         1 1PF       0.120500
     45 H17          0.4970    -1.6240     0.9690 hc         1 1PF       0.045700
     46 H18          1.1090    -3.0760     1.7510 hc         1 1PF       0.045700
     47 H19         -1.2880    -2.9130    -0.1360 hc         1 1PF       0.037450
     48 H20         -1.3620    -3.1390     1.5990 hc         1 1PF       0.037450
     49 H21         -7.7670     2.1960    -1.4640 h1         1 1PF       0.030700
     50 H22         -8.3040     1.6110     0.1090 h1         1 1PF       0.030700
     51 H23         -7.1260     2.9290     0.0150 h1         1 1PF       0.030700
     52 H25         -5.5980     1.4860     1.4390 h1         1 1PF       0.037450
     53 H26         -6.8760     0.2780     1.4320 h1         1 1PF       0.037450
     54 H27         -4.6570    -0.7530     1.8790 hc         1 1PF       0.057700
     55 H28         -5.4130    -1.3980     0.4320 hc         1 1PF       0.057700
     56 H29         -3.1030    -1.0250    -0.0730 h1         1 1PF       0.048700
     57 H30         -1.7080     2.5370     2.0930 ha         1 1PF       0.124500
     58 H31          0.6750     3.0320     1.8630 ha         1 1PF       0.120500
     59 H32          2.3240     4.0760     0.2610 hn         1 1PF       0.370000
     60 H33          1.0020    -2.5970    -1.2580 hc         1 1PF       0.054700
     61 H34         -1.4340    -0.2160    -1.1960 ha         1 1PF       0.124500
     62 O19          2.7260    -0.9880    -0.1560 os         1 1PF      -0.347100
     63 C01         -7.4400     1.9790    -0.4460 c3         1 1PF       0.153100
     64 H6           2.1520    -4.9570     0.2890 hc         1 1PF       0.045700
@<TRIPOS>BOND
     1     1    12 ar  
     2     1    23 ar  
     3     1    24 1   
     4     2     3 ar  
     5     2    26 2   
     6     2    28 ar  
     7     3     4 ar  
     8     3    30 1   
     9     4     5 ar  
    10     4    31 1   
    11     5    15 ar  
    12     5    32 1   
    13     6    27 1   
    14     6    33 1   
    15     6    34 1   
    16     6    62 1   
    17     7     8 1   
    18     7    27 1   
    19     7    35 1   
    20     7    64 1   
    21     8     9 1   
    22     8    36 1   
    23     8    37 1   
    24     9    14 1   
    25     9    38 1   
    26     9    39 1   
    27    10    11 1   
    28    10    16 1   
    29    10    40 1   
    30    10    41 1   
    31    11    19 1   
    32    11    42 1   
    33    11    43 1   
    34    12    29 ar  
    35    12    44 1   
    36    13    14 1   
    37    13    27 1   
    38    13    45 1   
    39    13    46 1   
    40    14    47 1   
    41    14    48 1   
    42    15    28 ar  
    43    15    62 1   
    44    16    17 1   
    45    16    63 1   
    46    17    18 1   
    47    17    52 1   
    48    17    53 1   
    49    18    19 1   
    50    18    54 1   
    51    18    55 1   
    52    19    20 1   
    53    19    56 1   
    54    20    21 1   
    55    21    22 ar  
    56    21    29 ar  
    57    22    23 ar  
    58    22    57 1   
    59    23    58 1   
    60    24    25 1   
    61    24    28 2   
    62    25    26 1   
    63    25    59 1   
    64    27    60 1   
    65    29    61 1   
    66    49    63 1   
    67    50    63 1   
    68    51    63 1   
@<TRIPOS>SUBSTRUCTURE
     1 1PF         1 TEMP              0 ****  ****    0 ROOT
