@<TRIPOS>MOLECULE
1PG
   41    40     1     0     0
SMALL
No Charge or Current Charge


@<TRIPOS>ATOM
      1 C2          -1.3020     0.2650    -5.5920 c3         1 1PG       0.158600
      2 C1          -0.1490     1.2520    -7.4780 c3         1 1PG       0.146900
      3 O1          -0.1870     0.1960    -6.5040 os         1 1PG      -0.443000
      4 O2          -0.1330    -0.6900    -3.6800 os         1 1PG      -0.436000
      5 C3          -1.2200    -0.9200    -4.5990 c3         1 1PG       0.161600
      6 C4           0.0540    -1.7330    -2.7030 c3         1 1PG       0.161600
      7 C5           1.2370    -1.3550    -1.7790 c3         1 1PG       0.161600
      8 O3           0.8320    -0.2760    -0.9130 os         1 1PG      -0.437000
      9 C6           1.8560     0.1770    -0.0060 c3         1 1PG       0.161600
     10 C7           1.2880     1.3220     0.8670 c3         1 1PG       0.161600
     11 O4           0.3480     0.7720     1.8120 os         1 1PG      -0.437000
     12 C8          -0.2640     1.7460     2.6800 c3         1 1PG       0.161600
     13 C9          -1.2360     1.0250     3.6440 c3         1 1PG       0.162600
     14 O5          -0.4730     0.2800     4.6150 os         1 1PG      -0.435000
     15 C10         -1.2710    -0.4510     5.5680 c3         1 1PG       0.160600
     16 C11         -0.3340    -1.1970     6.5570 c3         1 1PG       0.163600
     17 O6           0.3760    -0.2800     7.4130 oh         1 1PG      -0.711000
     18 H21         -1.2990     1.2110    -5.0350 h1         1 1PG       0.028700
     19 H22         -2.2490     0.1970    -6.1430 h1         1 1PG       0.028700
     20 H11          0.7220     1.1340    -8.1340 h1         1 1PG       0.027033
     21 H12         -1.0520     1.2400    -8.1020 h1         1 1PG       0.027033
     22 H13         -0.0780     2.2320    -6.9870 h1         1 1PG       0.027033
     23 H31         -2.1690    -0.9900    -4.0520 h1         1 1PG       0.027200
     24 H32         -1.0760    -1.8560    -5.1540 h1         1 1PG       0.027200
     25 H41         -0.8520    -1.8760    -2.1000 h1         1 1PG       0.027700
     26 H42          0.2840    -2.6830    -3.2020 h1         1 1PG       0.027700
     27 H51          1.5160    -2.2350    -1.1850 h1         1 1PG       0.028700
     28 H52          2.1020    -1.0680    -2.3910 h1         1 1PG       0.028700
     29 H61          2.2010    -0.6410     0.6410 h1         1 1PG       0.028700
     30 H62          2.7200     0.5560    -0.5680 h1         1 1PG       0.028700
     31 H71          2.1180     1.8080     1.3960 h1         1 1PG       0.028700
     32 H72          0.8080     2.0710     0.2230 h1         1 1PG       0.028700
     33 H81          0.4940     2.2890     3.2610 h1         1 1PG       0.028200
     34 H82         -0.8300     2.4780     2.0890 h1         1 1PG       0.028200
     35 H91         -1.8590     1.7760     4.1470 h1         1 1PG       0.028200
     36 H92         -1.8980     0.3620     3.0710 h1         1 1PG       0.028200
     37 H101        -1.9320     0.2240     6.1270 h1         1 1PG       0.026200
     38 H102        -1.8980    -1.1890     5.0500 h1         1 1PG       0.026200
     39 H111        -0.9450    -1.8780     7.1650 h1         1 1PG       0.025200
     40 H112         0.3710    -1.8130     5.9830 h1         1 1PG       0.025200
     41 HO6          0.9890    -0.8200     7.9640 ho         1 1PG       0.500000
@<TRIPOS>BOND
     1     1     3 1   
     2     1     5 1   
     3     1    18 1   
     4     1    19 1   
     5     2     3 1   
     6     2    20 1   
     7     2    21 1   
     8     2    22 1   
     9     4     5 1   
    10     4     6 1   
    11     5    23 1   
    12     5    24 1   
    13     6     7 1   
    14     6    25 1   
    15     6    26 1   
    16     7     8 1   
    17     7    27 1   
    18     7    28 1   
    19     8     9 1   
    20     9    10 1   
    21     9    29 1   
    22     9    30 1   
    23    10    11 1   
    24    10    31 1   
    25    10    32 1   
    26    11    12 1   
    27    12    13 1   
    28    12    33 1   
    29    12    34 1   
    30    13    14 1   
    31    13    35 1   
    32    13    36 1   
    33    14    15 1   
    34    15    16 1   
    35    15    37 1   
    36    15    38 1   
    37    16    17 1   
    38    16    39 1   
    39    16    40 1   
    40    17    41 1   
@<TRIPOS>SUBSTRUCTURE
     1 1PG         1 TEMP              0 ****  ****    0 ROOT
