@<TRIPOS>MOLECULE
1PG
   41    40     1     0     0
SMALL
abcg2


@<TRIPOS>ATOM
      1 C2          -1.4090     0.0840    -5.2780 c3         1 1PG       0.158600
      2 C1          -0.5540     1.5060    -6.9230 c3         1 1PG       0.146900
      3 O1          -0.3210     0.3830    -6.1140 os         1 1PG      -0.443000
      4 O2          -0.0410    -0.7630    -3.5220 os         1 1PG      -0.436000
      5 C3          -1.0750    -1.1020    -4.4100 c3         1 1PG       0.161600
      6 C4           0.3130    -1.8200    -2.6680 c3         1 1PG       0.161600
      7 C5           1.4330    -1.3870    -1.7570 c3         1 1PG       0.161600
      8 O3           0.9830    -0.3730    -0.8950 os         1 1PG      -0.437000
      9 C6           1.9930     0.0950    -0.0370 c3         1 1PG       0.161600
     10 C7           1.4610     1.2170     0.8150 c3         1 1PG       0.161600
     11 O4           0.4850     0.7310     1.7010 os         1 1PG      -0.437000
     12 C8          -0.0650     1.7440     2.5040 c3         1 1PG       0.161600
     13 C9          -1.1030     1.1610     3.4270 c3         1 1PG       0.162600
     14 O5          -0.4900     0.2980     4.3490 os         1 1PG      -0.435000
     15 C10         -1.4010    -0.2600     5.2620 c3         1 1PG       0.160600
     16 C11         -0.6700    -1.1490     6.2350 c3         1 1PG       0.163600
     17 O6           0.1860    -0.3660     7.0350 oh         1 1PG      -0.711000
     18 H21         -1.6710     0.9460    -4.6470 h1         1 1PG       0.028700
     19 H22         -2.3050    -0.1630    -5.8650 h1         1 1PG       0.028700
     20 H11          0.3270     1.6620    -7.5450 h1         1 1PG       0.027033
     21 H12         -1.4210     1.3690    -7.5810 h1         1 1PG       0.027033
     22 H13         -0.7240     2.4130    -6.3310 h1         1 1PG       0.027033
     23 H31         -1.9840    -1.3940    -3.8660 h1         1 1PG       0.027200
     24 H32         -0.7920    -1.9600    -5.0380 h1         1 1PG       0.027200
     25 H41         -0.5490    -2.1530    -2.0720 h1         1 1PG       0.027700
     26 H42          0.6600    -2.6930    -3.2390 h1         1 1PG       0.027700
     27 H51          1.7740    -2.2660    -1.1930 h1         1 1PG       0.028700
     28 H52          2.2880    -1.0420    -2.3560 h1         1 1PG       0.028700
     29 H61          2.3780    -0.7150     0.6000 h1         1 1PG       0.028700
     30 H62          2.8470     0.4820    -0.6090 h1         1 1PG       0.028700
     31 H71          2.3040     1.6610     1.3620 h1         1 1PG       0.028700
     32 H72          1.0500     2.0090     0.1720 h1         1 1PG       0.028700
     33 H81          0.7160     2.2510     3.0900 h1         1 1PG       0.028200
     34 H82         -0.5490     2.5150     1.8880 h1         1 1PG       0.028200
     35 H91         -1.6090     1.9920     3.9380 h1         1 1PG       0.028200
     36 H92         -1.8710     0.6360     2.8400 h1         1 1PG       0.028200
     37 H101        -1.9440     0.5260     5.8070 h1         1 1PG       0.026200
     38 H102        -2.1580    -0.8680     4.7450 h1         1 1PG       0.026200
     39 H111        -1.4260    -1.6720     6.8340 h1         1 1PG       0.025200
     40 H112        -0.1180    -1.9180     5.6790 h1         1 1PG       0.025200
     41 HO6          0.6620    -0.9520     7.6300 ho         1 1PG       0.500000
@<TRIPOS>BOND
     1     1     3 1   
     2     1     5 1   
     3     1    18 1   
     4     1    19 1   
     5     2     3 1   
     6     2    20 1   
     7     2    21 1   
     8     2    22 1   
     9     4     5 1   
    10     4     6 1   
    11     5    23 1   
    12     5    24 1   
    13     6     7 1   
    14     6    25 1   
    15     6    26 1   
    16     7     8 1   
    17     7    27 1   
    18     7    28 1   
    19     8     9 1   
    20     9    10 1   
    21     9    29 1   
    22     9    30 1   
    23    10    11 1   
    24    10    31 1   
    25    10    32 1   
    26    11    12 1   
    27    12    13 1   
    28    12    33 1   
    29    12    34 1   
    30    13    14 1   
    31    13    35 1   
    32    13    36 1   
    33    14    15 1   
    34    15    16 1   
    35    15    37 1   
    36    15    38 1   
    37    16    17 1   
    38    16    39 1   
    39    16    40 1   
    40    17    41 1   
@<TRIPOS>SUBSTRUCTURE
     1 1PG         1 TEMP              0 ****  ****    0 ROOT
