@<TRIPOS>MOLECULE
1PH
   47    50     1     0     0
SMALL
abcg2


@<TRIPOS>ATOM
      1 C10          1.8740    -1.4430    -0.1100 cc         1 1PH      -0.065300
      2 N11          2.2760    -2.5720     0.5010 na         1 1PH       0.024500
      3 N12          1.3130    -3.4000     0.8600 nc         1 1PH      -0.260400
      4 C13          0.1950    -2.7810     0.4720 ca         1 1PH      -0.082000
      5 C14         -1.1410    -3.2190     0.6060 ca         1 1PH      -0.061000
      6 C15         -2.1370    -2.4140     0.1390 ca         1 1PH      -0.096000
      7 C16         -1.8560    -1.1450    -0.4530 ca         1 1PH      -0.034000
      8 C18         -4.0870    -0.1100    -0.3290 c          1 1PH       0.602100
      9 C22         -6.3190     2.2460     0.4870 ca         1 1PH      -0.092000
     10 C20         -4.9970     0.8260    -1.1090 c3         1 1PH      -0.114100
     11 C21         -6.2580     1.1480    -0.3660 ca         1 1PH      -0.071300
     12 C23         -7.4820     2.5350     1.1890 ca         1 1PH      -0.108500
     13 N01          5.8670     2.2110     1.6510 n8         1 1PH      -1.003100
     14 O03          7.3510     1.5930    -0.3810 o          1 1PH      -0.542500
     15 O04          6.6990    -0.1080     1.3370 o          1 1PH      -0.542500
     16 C05          4.8700     0.7840    -0.3420 ca         1 1PH      -0.258500
     17 C06          4.6140     1.5100    -1.4950 ca         1 1PH      -0.016000
     18 C07          3.4290     1.2720    -2.1780 ca         1 1PH      -0.127000
     19 C08          2.5380     0.3140    -1.7260 ca         1 1PH      -0.039000
     20 C09          2.8040    -0.4190    -0.5670 ca         1 1PH      -0.041800
     21 N17         -2.9050    -0.3500    -0.9500 ns         1 1PH      -0.165000
     22 O19         -4.3980    -0.6010     0.7390 o          1 1PH      -0.560100
     23 C24         -8.6020     1.7260     1.0460 ca         1 1PH      -0.103000
     24 C25         -8.5510     0.6290     0.1960 ca         1 1PH      -0.108500
     25 C26         -7.3850     0.3440    -0.5030 ca         1 1PH      -0.092000
     26 C27         -0.5670    -0.7030    -0.5980 ca         1 1PH      -0.118000
     27 C28          0.4790    -1.5370    -0.1520 ca         1 1PH      -0.103000
     28 C29          3.9810    -0.1660     0.1350 ca         1 1PH      -0.008000
     29 H1           3.2350    -2.8470     0.6610 hn         1 1PH       0.377000
     30 H2          -1.3690    -4.1770     1.0560 ha         1 1PH       0.132000
     31 H3          -3.1610    -2.7500     0.2070 ha         1 1PH       0.135000
     32 H4          -5.4520     2.8850     0.6030 ha         1 1PH       0.109500
     33 H5          -4.4450     1.7390    -1.3490 hc         1 1PH       0.063200
     34 H6          -5.2260     0.3530    -2.0680 hc         1 1PH       0.063200
     35 H7          -7.5130     3.3950     1.8460 ha         1 1PH       0.112500
     36 H8           6.4860     2.2520     2.4560 hn         1 1PH       0.475500
     37 H9           5.7630     3.1340     1.2410 hn         1 1PH       0.475500
     38 H10          5.3160     2.2430    -1.8670 ha         1 1PH       0.136000
     39 H11          3.2110     1.8240    -3.0820 ha         1 1PH       0.123000
     40 H12          1.6400     0.1170    -2.2970 ha         1 1PH       0.126000
     41 H13         -2.6940     0.2030    -1.7670 hn         1 1PH       0.147000
     42 H14         -9.5100     1.9520     1.5910 ha         1 1PH       0.112000
     43 H15         -9.4200    -0.0050     0.0740 ha         1 1PH       0.112500
     44 H16         -7.3560    -0.5130    -1.1670 ha         1 1PH       0.109500
     45 H17         -0.3670     0.2650    -1.0400 ha         1 1PH       0.112000
     46 H18          4.1970    -0.6980     1.0530 ha         1 1PH       0.137000
     47 S02          6.3680     1.0770     0.5610 sy         1 1PH       1.126600
@<TRIPOS>BOND
     1     1     2 1   
     2     1    20 1   
     3     1    27 2   
     4     2     3 1   
     5     2    29 1   
     6     3     4 2   
     7     4     5 ar  
     8     4    27 ar  
     9     5     6 ar  
    10     5    30 1   
    11     6     7 ar  
    12     6    31 1   
    13     7    21 1   
    14     7    26 ar  
    15     8    10 1   
    16     8    21 1   
    17     8    22 2   
    18     9    11 ar  
    19     9    12 ar  
    20     9    32 1   
    21    10    11 1   
    22    10    33 1   
    23    10    34 1   
    24    11    25 ar  
    25    12    23 ar  
    26    12    35 1   
    27    13    36 1   
    28    13    37 1   
    29    13    47 1   
    30    14    47 2   
    31    15    47 2   
    32    16    17 ar  
    33    16    28 ar  
    34    16    47 1   
    35    17    18 ar  
    36    17    38 1   
    37    18    19 ar  
    38    18    39 1   
    39    19    20 ar  
    40    19    40 1   
    41    20    28 ar  
    42    21    41 1   
    43    23    24 ar  
    44    23    42 1   
    45    24    25 ar  
    46    24    43 1   
    47    25    44 1   
    48    26    27 ar  
    49    26    45 1   
    50    28    46 1   
@<TRIPOS>SUBSTRUCTURE
     1 1PH         1 TEMP              0 ****  ****    0 ROOT
