@<TRIPOS>MOLECULE
1PH
   47    50     1     0     0
SMALL
No Charge or Current Charge


@<TRIPOS>ATOM
      1 C10          1.7560    -1.6280    -0.0310 cc         1 1PH      -0.065300
      2 N11          2.3160    -2.7410     0.5860 na         1 1PH       0.024500
      3 N12          1.3550    -3.7200     0.8750 nc         1 1PH      -0.260400
      4 C13          0.1740    -3.1260     0.4180 ca         1 1PH      -0.082000
      5 C14         -1.1140    -3.6760     0.4840 ca         1 1PH      -0.061000
      6 C15         -2.2080    -2.9250     0.0010 ca         1 1PH      -0.096000
      7 C16         -2.0150    -1.6230    -0.5350 ca         1 1PH      -0.034000
      8 C18         -4.4480    -1.0000    -1.1020 c          1 1PH       0.602100
      9 C22         -5.1560     2.0790    -0.0060 ca         1 1PH      -0.092000
     10 C20         -5.2140     0.1850    -1.7050 c3         1 1PH      -0.114100
     11 C21         -5.8650     1.0210    -0.6080 ca         1 1PH      -0.071300
     12 C23         -5.7530     2.8450     1.0100 ca         1 1PH      -0.108500
     13 N01          5.0240     2.8170     1.8150 n8         1 1PH      -1.003100
     14 O03          6.6000     2.5920    -0.0220 o          1 1PH      -0.542500
     15 O04          6.2330     0.7130     1.6750 o          1 1PH      -0.542500
     16 C05          4.3300     1.1520    -0.1770 ca         1 1PH      -0.258500
     17 C06          3.9620     1.8040    -1.3710 ca         1 1PH      -0.016000
     18 C07          2.8780     1.3240    -2.1220 ca         1 1PH      -0.127000
     19 C08          2.1540     0.2010    -1.6850 ca         1 1PH      -0.039000
     20 C09          2.5030    -0.4530    -0.4860 ca         1 1PH      -0.041800
     21 N17         -3.0740    -0.8070    -1.0220 ns         1 1PH      -0.165000
     22 O19         -5.0280    -2.0110    -0.7220 o          1 1PH      -0.560100
     23 C24         -7.0630     2.5580     1.4310 ca         1 1PH      -0.103000
     24 C25         -7.7740     1.5030     0.8350 ca         1 1PH      -0.108500
     25 C26         -7.1770     0.7360    -0.1810 ca         1 1PH      -0.092000
     26 C27         -0.7090    -1.0910    -0.5910 ca         1 1PH      -0.118000
     27 C28          0.3550    -1.8760    -0.1240 ca         1 1PH      -0.103000
     28 C29          3.6010     0.0260     0.2610 ca         1 1PH      -0.008000
     29 H1           3.2970    -2.8920     0.7980 hn         1 1PH       0.377000
     30 H2          -1.2700    -4.6660     0.9060 ha         1 1PH       0.132000
     31 H3          -3.1950    -3.3710     0.0630 ha         1 1PH       0.135000
     32 H4          -4.1410     2.3100    -0.3230 ha         1 1PH       0.109500
     33 H5          -4.5240     0.8210    -2.2740 hc         1 1PH       0.063200
     34 H6          -5.9860    -0.2030    -2.3800 hc         1 1PH       0.063200
     35 H7          -5.2010     3.6620     1.4710 ha         1 1PH       0.112500
     36 H8           5.3950     2.4840     2.7020 hn         1 1PH       0.475500
     37 H9           5.5960     3.6400     1.6410 hn         1 1PH       0.475500
     38 H10          4.5130     2.6760    -1.7200 ha         1 1PH       0.136000
     39 H11          2.6000     1.8200    -3.0500 ha         1 1PH       0.123000
     40 H12          1.3350    -0.1720    -2.2940 ha         1 1PH       0.126000
     41 H13         -2.7640     0.0890    -1.3750 hn         1 1PH       0.147000
     42 H14         -7.5250     3.1510     2.2170 ha         1 1PH       0.112000
     43 H15         -8.7870     1.2780     1.1610 ha         1 1PH       0.112500
     44 H16         -7.7340    -0.0810    -0.6340 ha         1 1PH       0.109500
     45 H17         -0.5380    -0.0900    -0.9770 ha         1 1PH       0.112000
     46 H18          3.8760    -0.4680     1.1900 ha         1 1PH       0.137000
     47 S02          5.7190     1.7560     0.7900 sy         1 1PH       1.126600
@<TRIPOS>BOND
     1     1     2 1   
     2     1    20 1   
     3     1    27 2   
     4     2     3 1   
     5     2    29 1   
     6     3     4 2   
     7     4     5 ar  
     8     4    27 ar  
     9     5     6 ar  
    10     5    30 1   
    11     6     7 ar  
    12     6    31 1   
    13     7    21 1   
    14     7    26 ar  
    15     8    10 1   
    16     8    21 1   
    17     8    22 2   
    18     9    11 ar  
    19     9    12 ar  
    20     9    32 1   
    21    10    11 1   
    22    10    33 1   
    23    10    34 1   
    24    11    25 ar  
    25    12    23 ar  
    26    12    35 1   
    27    13    36 1   
    28    13    37 1   
    29    13    47 1   
    30    14    47 2   
    31    15    47 2   
    32    16    17 ar  
    33    16    28 ar  
    34    16    47 1   
    35    17    18 ar  
    36    17    38 1   
    37    18    19 ar  
    38    18    39 1   
    39    19    20 ar  
    40    19    40 1   
    41    20    28 ar  
    42    21    41 1   
    43    23    24 ar  
    44    23    42 1   
    45    24    25 ar  
    46    24    43 1   
    47    25    44 1   
    48    26    27 ar  
    49    26    45 1   
    50    28    46 1   
@<TRIPOS>SUBSTRUCTURE
     1 1PH         1 TEMP              0 ****  ****    0 ROOT
