@<TRIPOS>MOLECULE
1PI
   32    32     1     0     0
SMALL
bcc


@<TRIPOS>ATOM
      1 C           15.2760   -11.1680    18.6010 c          1 1PI       0.583900
      2 N           15.8260   -10.9010    20.9080 n8         1 1PI      -0.893800
      3 O           14.5540   -11.1030    17.6400 o          1 1PI      -0.517100
      4 C1          12.1680   -13.1480    20.7160 c6         1 1PI      -0.074400
      5 C2          11.3320   -13.9450    21.7120 c6         1 1PI      -0.108400
      6 C3          12.0440   -14.0530    23.0550 c6         1 1PI       0.210800
      7 CA          14.8320   -11.4850    20.0140 c3         1 1PI       0.044500
      8 CB          13.4230   -10.9690    20.3140 c3         1 1PI      -0.068400
      9 CD          13.2530   -12.0090    22.6540 c6         1 1PI       0.215800
     10 NE          12.3970   -12.7380    23.5710 nh         1 1PI      -0.744600
     11 CG          12.5860   -11.7960    21.2940 c6         1 1PI      -0.095700
     12 NH1         11.4990   -10.7330    24.2920 n2         1 1PI      -0.890100
     13 NH2         10.7000   -12.7810    25.1570 nv         1 1PI      -0.947800
     14 H4          16.3680   -11.0180    18.4980 h4         1 1PI      -0.008800
     15 H           15.5020   -10.9380    21.8640 hn         1 1PI       0.346800
     16 H2          16.6790   -11.4470    20.8860 hn         1 1PI       0.346800
     17 H1          11.6130   -13.0000    19.7860 hc         1 1PI       0.041200
     18 H1A         13.0570   -13.7340    20.4540 hc         1 1PI       0.041200
     19 H2B         10.3620   -13.4600    21.8600 hc         1 1PI       0.051200
     20 H2A         11.1290   -14.9470    21.3250 hc         1 1PI       0.051200
     21 H3          11.4340   -14.6030    23.7670 h1         1 1PI       0.050700
     22 H3A         12.9710   -14.6250    22.9370 h1         1 1PI       0.050700
     23 HA          14.8230   -12.5890    20.0550 h1         1 1PI       0.039700
     24 HB          13.5150    -9.9420    20.6830 hc         1 1PI       0.066700
     25 HBA         12.8580   -10.9080    19.3820 hc         1 1PI       0.066700
     26 HD          14.1690   -12.5990    22.5320 h1         1 1PI       0.057200
     27 HDA         13.5270   -11.0580    23.1090 h1         1 1PI       0.057200
     28 HG          11.6740   -11.2170    21.4770 hc         1 1PI       0.074700
     29 HNH1        10.8940   -10.3550    25.0110 hn         1 1PI       0.377400
     30 HNH2        10.2000   -12.2510    25.8540 hn         1 1PI       0.394800
     31 HNHA        11.1110   -13.6100    25.5590 hn         1 1PI       0.394800
     32 CZ          11.5220   -12.0150    24.3520 c2         1 1PI       0.787100
@<TRIPOS>BOND
     1     1     3 2   
     2     1     7 1   
     3     1    14 1   
     4     2     7 1   
     5     2    15 1   
     6     2    16 1   
     7     4     5 1   
     8     4    11 1   
     9     4    17 1   
    10     4    18 1   
    11     5     6 1   
    12     5    19 1   
    13     5    20 1   
    14     6    10 1   
    15     6    21 1   
    16     6    22 1   
    17     7     8 1   
    18     7    23 1   
    19     8    11 1   
    20     8    24 1   
    21     8    25 1   
    22     9    10 1   
    23     9    11 1   
    24     9    26 1   
    25     9    27 1   
    26    10    32 1   
    27    11    28 1   
    28    12    29 1   
    29    12    32 2   
    30    13    30 1   
    31    13    31 1   
    32    13    32 1   
@<TRIPOS>SUBSTRUCTURE
     1 1PI         1 TEMP              0 ****  ****    0 ROOT
