@<TRIPOS>MOLECULE
1PJ
   25    26     1     0     0
SMALL
abcg2


@<TRIPOS>ATOM
      1 C6          -0.2450     0.7100     0.8900 ca         1 1PJ      -0.068500
      2 C5           2.5610     0.3990    -0.8460 c          1 1PJ       0.745000
      3 C4           2.2820    -1.9450     0.2130 cx         1 1PJ      -0.124400
      4 C2           0.2930    -0.3160     0.1120 ca         1 1PJ       0.004700
      5 O8           1.9100     1.2650    -1.4590 o          1 1PJ      -0.722500
      6 O9           3.7950     0.2210    -0.8970 o          1 1PJ      -0.722500
      7 C1           1.7660    -0.5390     0.0640 cx         1 1PJ      -0.193700
      8 C3           2.4460    -0.9800     1.3360 cx         1 1PJ      -0.124400
      9 C10         -1.6050     0.9490     0.9330 ca         1 1PJ      -0.175500
     10 C12         -2.4820     0.1590     0.1850 ca         1 1PJ       0.096100
     11 O13         -3.7950     0.4620     0.2850 os         1 1PJ      -0.357100
     12 C14         -4.7180    -0.3030    -0.4610 c3         1 1PJ       0.157900
     13 C11         -1.9670    -0.8690    -0.5960 ca         1 1PJ      -0.175500
     14 C7          -0.5920    -1.0920    -0.6220 ca         1 1PJ      -0.068500
     15 H1           0.4170     1.3290     1.4830 ha         1 1PJ       0.111500
     16 H2           1.5540    -2.7390     0.3300 hc         1 1PJ       0.056950
     17 H3           3.1580    -2.2190    -0.3590 hc         1 1PJ       0.056950
     18 H5           1.8250    -1.1110     2.2130 hc         1 1PJ       0.056950
     19 H6           3.4350    -0.5890     1.5360 hc         1 1PJ       0.056950
     20 H7          -2.0020     1.7490     1.5470 ha         1 1PJ       0.099500
     21 H8          -5.7040     0.1020    -0.2460 h1         1 1PJ       0.026700
     22 H9          -4.5360    -0.2320    -1.5370 h1         1 1PJ       0.026700
     23 H10         -4.7040    -1.3590    -0.1740 h1         1 1PJ       0.026700
     24 H11         -2.6110    -1.5060    -1.1870 ha         1 1PJ       0.099500
     25 H12         -0.2090    -1.9010    -1.2340 ha         1 1PJ       0.111500
@<TRIPOS>BOND
     1     1     4 ar  
     2     1     9 ar  
     3     1    15 1   
     4     2     5 1   
     5     2     6 1   
     6     2     7 1   
     7     3     7 1   
     8     3     8 1   
     9     3    16 1   
    10     3    17 1   
    11     4     7 1   
    12     4    14 ar  
    13     7     8 1   
    14     8    18 1   
    15     8    19 1   
    16     9    10 ar  
    17     9    20 1   
    18    10    11 1   
    19    10    13 ar  
    20    11    12 1   
    21    12    21 1   
    22    12    22 1   
    23    12    23 1   
    24    13    14 ar  
    25    13    24 1   
    26    14    25 1   
@<TRIPOS>SUBSTRUCTURE
     1 1PJ         1 TEMP              0 ****  ****    0 ROOT
