@<TRIPOS>MOLECULE
1PJ
   25    26     1     0     0
SMALL
No Charge or Current Charge


@<TRIPOS>ATOM
      1 C6          -0.2050     0.6220     1.0340 ca         1 1PJ      -0.068500
      2 C5           2.4910     0.3080    -0.9380 c          1 1PJ       0.745000
      3 C4           2.3130    -2.0120     0.2310 cx         1 1PJ      -0.124400
      4 C2           0.3060    -0.3290     0.1300 ca         1 1PJ       0.004700
      5 O8           2.5830    -0.0730    -2.0970 o          1 1PJ      -0.722500
      6 O9           2.9170     1.3840    -0.5440 o          1 1PJ      -0.722500
      7 C1           1.7840    -0.5970     0.0630 cx         1 1PJ      -0.193700
      8 C3           2.5470    -0.9940     1.3170 cx         1 1PJ      -0.124400
      9 C10         -1.5870     0.8730     1.0940 ca         1 1PJ      -0.175500
     10 C12         -2.4730     0.1810     0.2530 ca         1 1PJ       0.096100
     11 O13         -3.8180     0.4690     0.3550 os         1 1PJ      -0.357100
     12 C14         -4.8060    -0.1850    -0.4610 c3         1 1PJ       0.157900
     13 C11         -1.9650    -0.7700    -0.6590 ca         1 1PJ      -0.175500
     14 C7          -0.5820    -1.0200    -0.7170 ca         1 1PJ      -0.068500
     15 H1           0.4720     1.1660     1.6890 ha         1 1PJ       0.111500
     16 H2           1.5960    -2.8050     0.4310 hc         1 1PJ       0.056950
     17 H3           3.1680    -2.3140    -0.3690 hc         1 1PJ       0.056950
     18 H5           1.9860    -1.1070     2.2420 hc         1 1PJ       0.056950
     19 H6           3.5580    -0.6140     1.4430 hc         1 1PJ       0.056950
     20 H7          -1.9710     1.6080     1.7960 ha         1 1PJ       0.099500
     21 H8          -5.8080     0.1900    -0.2180 h1         1 1PJ       0.026700
     22 H9          -4.6200     0.0070    -1.5260 h1         1 1PJ       0.026700
     23 H10         -4.7970    -1.2690    -0.2900 h1         1 1PJ       0.026700
     24 H11         -2.6210    -1.3220    -1.3250 ha         1 1PJ       0.099500
     25 H12         -0.1960    -1.7520    -1.4230 ha         1 1PJ       0.111500
@<TRIPOS>BOND
     1     1     4 ar  
     2     1     9 ar  
     3     1    15 1   
     4     2     5 1   
     5     2     6 1   
     6     2     7 1   
     7     3     7 1   
     8     3     8 1   
     9     3    16 1   
    10     3    17 1   
    11     4     7 1   
    12     4    14 ar  
    13     7     8 1   
    14     8    18 1   
    15     8    19 1   
    16     9    10 ar  
    17     9    20 1   
    18    10    11 1   
    19    10    13 ar  
    20    11    12 1   
    21    12    21 1   
    22    12    22 1   
    23    12    23 1   
    24    13    14 ar  
    25    13    24 1   
    26    14    25 1   
@<TRIPOS>SUBSTRUCTURE
     1 1PJ         1 TEMP              0 ****  ****    0 ROOT
