@<TRIPOS>MOLECULE
1PK
   23    25     1     0     0
SMALL
No Charge or Current Charge


@<TRIPOS>ATOM
      1 N14          3.6770     0.0330    -0.0930 nv         1 1PK      -1.079900
      2 C11          2.3600     0.0320    -0.0710 cc         1 1PK       0.808400
      3 N5           1.7110    -1.1810    -0.0500 na         1 1PK      -0.419500
      4 N7           1.7800     1.2160    -0.0650 nd         1 1PK      -0.810000
      5 C3           0.3750     1.1840    -0.0320 ca         1 1PK       0.335000
      6 C8          -0.3210     2.4060    -0.0240 ca         1 1PK      -0.147000
      7 C13         -1.7270     2.4360     0.0110 ca         1 1PK      -0.063000
      8 C10         -2.4550     1.2340     0.0400 ca         1 1PK      -0.154000
      9 C4          -1.7730     0.0050     0.0340 ca         1 1PK       0.024000
     10 C1          -0.3640    -0.0070    -0.0030 ca         1 1PK      -0.107000
     11 C9          -2.4770    -1.2130     0.0620 ca         1 1PK      -0.149000
     12 C12         -1.7730    -2.4310     0.0550 ca         1 1PK      -0.058000
     13 C6          -0.3670    -2.4290     0.0180 ca         1 1PK      -0.209000
     14 C2           0.3300    -1.2100    -0.0110 ca         1 1PK       0.031000
     15 H1           4.1220    -0.7390     0.3860 hn         1 1PK       0.488000
     16 H2           4.0690     0.9450     0.1000 hn         1 1PK       0.488000
     17 H3           2.2510    -2.0300    -0.0850 hn         1 1PK       0.337000
     18 H4           0.2350     3.3390    -0.0460 ha         1 1PK       0.126000
     19 H5          -2.2510     3.3890     0.0160 ha         1 1PK       0.109000
     20 H6          -3.5420     1.2600     0.0680 ha         1 1PK       0.114000
     21 H7          -3.5640    -1.2180     0.0910 ha         1 1PK       0.116000
     22 H8          -2.3170    -3.3730     0.0770 ha         1 1PK       0.110000
     23 H9           0.1740    -3.3730     0.0110 ha         1 1PK       0.112000
@<TRIPOS>BOND
     1     1     2 1   
     2     1    15 1   
     3     1    16 1   
     4     2     3 1   
     5     2     4 2   
     6     3    14 1   
     7     3    17 1   
     8     4     5 1   
     9     5     6 ar  
    10     5    10 ar  
    11     6     7 ar  
    12     6    18 1   
    13     7     8 ar  
    14     7    19 1   
    15     8     9 ar  
    16     8    20 1   
    17     9    10 ar  
    18     9    11 ar  
    19    10    14 ar  
    20    11    12 ar  
    21    11    21 1   
    22    12    13 ar  
    23    12    22 1   
    24    13    14 ar  
    25    13    23 1   
@<TRIPOS>SUBSTRUCTURE
     1 1PK         1 TEMP              0 ****  ****    0 ROOT
