@<TRIPOS>MOLECULE
1PK
   23    25     1     0     0
SMALL
bcc


@<TRIPOS>ATOM
      1 N14          3.6890     0.0130    -0.0860 nv         1 1PK      -0.969500
      2 C11          2.3420     0.0640    -0.0240 cc         1 1PK       0.808400
      3 N5           1.6960    -1.1350    -0.0100 na         1 1PK      -0.419900
      4 N7           1.7340     1.2100    -0.0190 nd         1 1PK      -0.810000
      5 C3           0.3590     1.2190    -0.0100 ca         1 1PK       0.465600
      6 C8          -0.3370     2.4160    -0.0150 ca         1 1PK      -0.230300
      7 C13         -1.7400     2.4190     0.0020 ca         1 1PK      -0.081000
      8 C10         -2.4660     1.2530     0.0240 ca         1 1PK      -0.172000
      9 C4          -1.8000     0.0070     0.0280 ca         1 1PK       0.024000
     10 C1          -0.3850     0.0070     0.0100 ca         1 1PK      -0.172300
     11 C9          -2.4730    -1.2390     0.0490 ca         1 1PK      -0.167000
     12 C12         -1.7600    -2.4100     0.0520 ca         1 1PK      -0.076000
     13 C6          -0.3540    -2.4200     0.0330 ca         1 1PK      -0.227000
     14 C2           0.3180    -1.2180     0.0120 ca         1 1PK       0.081700
     15 H1           4.1720    -0.8210     0.2050 hn         1 1PK       0.432800
     16 H2           4.1740     0.8740     0.1040 hn         1 1PK       0.432800
     17 H3           2.2320    -1.9890    -0.0380 hn         1 1PK       0.286700
     18 H4           0.2130     3.3480    -0.0300 ha         1 1PK       0.144000
     19 H5          -2.2590     3.3690    -0.0010 ha         1 1PK       0.127000
     20 H6          -3.5490     1.2780     0.0370 ha         1 1PK       0.132000
     21 H7          -3.5550    -1.2560     0.0640 ha         1 1PK       0.134000
     22 H8          -2.2850    -3.3560     0.0690 ha         1 1PK       0.128000
     23 H9           0.1900    -3.3560     0.0340 ha         1 1PK       0.130000
@<TRIPOS>BOND
     1     1     2 1   
     2     1    15 1   
     3     1    16 1   
     4     2     3 1   
     5     2     4 2   
     6     3    14 1   
     7     3    17 1   
     8     4     5 1   
     9     5     6 ar  
    10     5    10 ar  
    11     6     7 ar  
    12     6    18 1   
    13     7     8 ar  
    14     7    19 1   
    15     8     9 ar  
    16     8    20 1   
    17     9    10 ar  
    18     9    11 ar  
    19    10    14 ar  
    20    11    12 ar  
    21    11    21 1   
    22    12    13 ar  
    23    12    22 1   
    24    13    14 ar  
    25    13    23 1   
@<TRIPOS>SUBSTRUCTURE
     1 1PK         1 TEMP              0 ****  ****    0 ROOT
