@<TRIPOS>MOLECULE
1PL
   38    40     1     0     0
SMALL
abcg2


@<TRIPOS>ATOM
      1 C10          2.4430     2.5090     0.1070 c3         1 1PL      -0.074100
      2 C9           1.0450     2.0520     0.4890 c5         1 1PL      -0.053700
      3 C11         -0.0670     2.9510    -0.0600 c5         1 1PL      -0.081400
      4 C12         -1.3260     2.1060     0.0960 c5         1 1PL      -0.060400
      5 C5          -0.8580     0.7310    -0.3850 c5         1 1PL      -0.010500
      6 C4           0.6170     0.6080     0.0810 c5         1 1PL      -0.064000
      7 C3           1.4940    -0.1180    -0.9660 c5         1 1PL      -0.051400
      8 C2           2.1500    -1.3670    -0.3190 c5         1 1PL      -0.049000
      9 C14          3.6550    -1.4050    -0.5730 c3         1 1PL      -0.079100
     10 C15          1.5260    -2.6510    -0.8670 c3         1 1PL      -0.079100
     11 C1           1.8470    -1.2110     1.1790 c5         1 1PL      -0.056400
     12 C8           0.5710    -0.3810     1.2760 c5         1 1PL      -0.029500
     13 C7          -0.7440    -1.0780     1.0930 c2         1 1PL      -0.257200
     14 C6          -1.5380    -0.4650     0.2120 ce         1 1PL      -0.150400
     15 C13         -2.9450    -0.8670    -0.1400 c          1 1PL       0.713200
     16 O1          -3.5400    -0.1270    -0.9520 o          1 1PL      -0.728500
     17 O2          -3.4080    -1.8930     0.4010 o          1 1PL      -0.728500
     18 H101         2.6420     3.5010     0.5200 hc         1 1PL       0.021700
     19 H102         3.2120     1.8370     0.4940 hc         1 1PL       0.021700
     20 H103         2.5730     2.5770    -0.9750 hc         1 1PL       0.021700
     21 H9           0.9830     2.1040     1.5830 hc         1 1PL       0.037700
     22 H111        -0.1160     3.9170     0.4490 hc         1 1PL       0.025700
     23 H112         0.1120     3.1540    -1.1230 hc         1 1PL       0.025700
     24 H121        -1.6220     2.0640     1.1490 hc         1 1PL       0.050700
     25 H122        -2.1830     2.4790    -0.4670 hc         1 1PL       0.050700
     26 H5          -0.9200     0.7200    -1.4800 hc         1 1PL       0.061700
     27 H31          0.8830    -0.4220    -1.8210 hc         1 1PL       0.036700
     28 H32          2.2570     0.5410    -1.3810 hc         1 1PL       0.036700
     29 H141         4.1410    -0.4950    -0.2120 hc         1 1PL       0.027533
     30 H142         4.1200    -2.2550    -0.0670 hc         1 1PL       0.027533
     31 H143         3.8750    -1.4960    -1.6400 hc         1 1PL       0.027533
     32 H151         1.6920    -2.7370    -1.9440 hc         1 1PL       0.027533
     33 H152         1.9640    -3.5330    -0.3920 hc         1 1PL       0.027533
     34 H153         0.4480    -2.6830    -0.6980 hc         1 1PL       0.027533
     35 H11          1.7800    -2.1720     1.6980 hc         1 1PL       0.027700
     36 H12          2.6550    -0.6510     1.6600 hc         1 1PL       0.027700
     37 H8           0.5520     0.1410     2.2430 hc         1 1PL       0.037700
     38 H7          -1.0300    -1.9480     1.6730 ha         1 1PL       0.190000
@<TRIPOS>BOND
     1     1     2 1   
     2     1    18 1   
     3     1    19 1   
     4     1    20 1   
     5     2     3 1   
     6     2     6 1   
     7     2    21 1   
     8     3     4 1   
     9     3    22 1   
    10     3    23 1   
    11     4     5 1   
    12     4    24 1   
    13     4    25 1   
    14     5     6 1   
    15     5    14 1   
    16     5    26 1   
    17     6     7 1   
    18     6    12 1   
    19     7     8 1   
    20     7    27 1   
    21     7    28 1   
    22     8     9 1   
    23     8    10 1   
    24     8    11 1   
    25     9    29 1   
    26     9    30 1   
    27     9    31 1   
    28    10    32 1   
    29    10    33 1   
    30    10    34 1   
    31    11    12 1   
    32    11    35 1   
    33    11    36 1   
    34    12    13 1   
    35    12    37 1   
    36    13    14 2   
    37    13    38 1   
    38    14    15 1   
    39    15    16 1   
    40    15    17 1   
@<TRIPOS>SUBSTRUCTURE
     1 1PL         1 TEMP              0 ****  ****    0 ROOT
