@<TRIPOS>MOLECULE
1PL
   38    40     1     0     0
SMALL
No Charge or Current Charge


@<TRIPOS>ATOM
      1 C10          2.1310     2.8940     0.7200 c3         1 1PL      -0.074100
      2 C9           0.7700     2.1790     0.5480 c5         1 1PL      -0.053700
      3 C11         -0.1500     2.7500    -0.5580 c5         1 1PL      -0.081400
      4 C12         -1.3550     1.7790    -0.4170 c5         1 1PL      -0.060400
      5 C5          -0.6550     0.3790    -0.4560 c5         1 1PL      -0.010500
      6 C4           0.7700     0.6490     0.1690 c5         1 1PL      -0.064000
      7 C3           1.9080     0.2200    -0.8210 c5         1 1PL      -0.051400
      8 C2           2.0900    -1.3320    -0.5270 c5         1 1PL      -0.049000
      9 C14          3.4870    -1.8060    -1.0160 c3         1 1PL      -0.079100
     10 C15          1.0620    -2.3430    -1.1720 c3         1 1PL      -0.079100
     11 C1           2.0150    -1.3120     1.0450 c5         1 1PL      -0.056400
     12 C8           0.9310    -0.2480     1.4460 c5         1 1PL      -0.029500
     13 C7          -0.4350    -0.8770     1.6600 c2         1 1PL      -0.257200
     14 C6          -1.2370    -0.5040     0.6440 ce         1 1PL      -0.150400
     15 C13         -2.6720    -0.9540     0.4270 c          1 1PL       0.713200
     16 O1          -3.2670    -0.6350    -0.5940 o          1 1PL      -0.728500
     17 O2          -3.1860    -1.6570     1.2870 o          1 1PL      -0.728500
     18 H101         1.9870     3.9100     1.1070 hc         1 1PL       0.021700
     19 H102         2.7730     2.3570     1.4280 hc         1 1PL       0.021700
     20 H103         2.6670     2.9830    -0.2320 hc         1 1PL       0.021700
     21 H9           0.2710     2.3130     1.5170 hc         1 1PL       0.037700
     22 H111        -0.4340     3.7910    -0.3700 hc         1 1PL       0.025700
     23 H112         0.3100     2.7020    -1.5530 hc         1 1PL       0.025700
     24 H121        -1.8960     1.9530     0.5220 hc         1 1PL       0.050700
     25 H122        -2.0790     1.9010    -1.2310 hc         1 1PL       0.050700
     26 H5          -0.6450    -0.0800    -1.4520 hc         1 1PL       0.061700
     27 H31          1.6650     0.4250    -1.8700 hc         1 1PL       0.036700
     28 H32          2.8470     0.7410    -0.6140 hc         1 1PL       0.036700
     29 H141         4.2900    -1.1810    -0.6080 hc         1 1PL       0.027533
     30 H142         3.6920    -2.8380    -0.7070 hc         1 1PL       0.027533
     31 H143         3.5610    -1.7620    -2.1090 hc         1 1PL       0.027533
     32 H151         1.0060    -2.2050    -2.2580 hc         1 1PL       0.027533
     33 H152         1.3600    -3.3820    -0.9870 hc         1 1PL       0.027533
     34 H153         0.0500    -2.2450    -0.7750 hc         1 1PL       0.027533
     35 H11          1.8040    -2.3020     1.4650 hc         1 1PL       0.027700
     36 H12          2.9820    -1.0100     1.4660 hc         1 1PL       0.027700
     37 H8           1.2450     0.3140     2.3340 hc         1 1PL       0.037700
     38 H7          -0.7250    -1.5310     2.4840 ha         1 1PL       0.190000
@<TRIPOS>BOND
     1     1     2 1   
     2     1    18 1   
     3     1    19 1   
     4     1    20 1   
     5     2     3 1   
     6     2     6 1   
     7     2    21 1   
     8     3     4 1   
     9     3    22 1   
    10     3    23 1   
    11     4     5 1   
    12     4    24 1   
    13     4    25 1   
    14     5     6 1   
    15     5    14 1   
    16     5    26 1   
    17     6     7 1   
    18     6    12 1   
    19     7     8 1   
    20     7    27 1   
    21     7    28 1   
    22     8     9 1   
    23     8    10 1   
    24     8    11 1   
    25     9    29 1   
    26     9    30 1   
    27     9    31 1   
    28    10    32 1   
    29    10    33 1   
    30    10    34 1   
    31    11    12 1   
    32    11    35 1   
    33    11    36 1   
    34    12    13 1   
    35    12    37 1   
    36    13    14 2   
    37    13    38 1   
    38    14    15 1   
    39    15    16 1   
    40    15    17 1   
@<TRIPOS>SUBSTRUCTURE
     1 1PL         1 TEMP              0 ****  ****    0 ROOT
