@<TRIPOS>MOLECULE
1PM
   60    64     1     0     0
SMALL
No Charge or Current Charge


@<TRIPOS>ATOM
      1 N3          -1.9080    -4.9380    -0.1770 na         1 1PM      -0.193000
      2 C4          -2.2680    -6.2210     0.1680 cc         1 1PM      -0.196000
      3 C5          -1.1090    -6.7570     0.6740 cd         1 1PM       0.224900
      4 NFE         -0.0730    -5.8330     0.6410 nd         1 1PM      -0.671000
      5 C2          -0.5840    -4.7220     0.1170 cc         1 1PM       0.434400
      6 C11         -2.7550    -3.9830    -0.7400 ca         1 1PM       0.283500
      7 N12         -2.4960    -2.6730    -0.5220 nb         1 1PM      -0.289000
      8 C13         -3.2980    -1.7340    -1.0580 ca         1 1PM       0.413900
      9 C14         -4.4030    -2.1050    -1.8330 ca         1 1PM      -0.308000
     10 C15         -4.6230    -3.4710    -2.0230 ca         1 1PM       0.157900
     11 N16         -3.8090    -4.3950    -1.4850 nb         1 1PM      -0.227000
     12 N21         -2.9720    -0.3770    -0.7970 nh         1 1PM      -0.772300
     13 C22         -3.7460     0.7460    -1.4240 c6         1 1PM       0.193800
     14 C23         -3.0480     2.1370    -1.3360 c6         1 1PM       0.093000
     15 N24         -2.5290     2.4870     0.0190 n          1 1PM      -0.385800
     16 C25         -2.4520     1.3560     0.9820 c6         1 1PM       0.091000
     17 C26         -2.0310     0.0110     0.3070 c6         1 1PM       0.215500
     18 C27         -2.0890     3.7780     0.3560 c          1 1PM       0.643100
     19 O28         -1.6480     4.0770     1.4550 o          1 1PM      -0.522000
     20 O29         -2.1840     4.6420    -0.7010 os         1 1PM      -0.458100
     21 C30         -1.7470     5.9990    -0.5020 c3         1 1PM       0.168900
     22 C31         -0.5820     0.0500    -0.2590 c3         1 1PM      -0.183400
     23 C32          0.4350     0.4440     0.8040 c          1 1PM       0.600100
     24 O33          0.7320    -0.2950     1.7290 o          1 1PM      -0.596100
     25 N34          1.0030     1.6850     0.6350 ns         1 1PM      -0.502900
     26 C36          2.0000     2.2740     1.5280 c3         1 1PM       0.149300
     27 C41          3.4090     2.0410     1.0070 ca         1 1PM      -0.120300
     28 C42          4.0440     3.0190     0.1990 ca         1 1PM      -0.104000
     29 C43          5.3490     2.8050    -0.2940 ca         1 1PM      -0.102000
     30 C44          5.9910     1.6070     0.0410 ca         1 1PM       0.059100
     31 C45          5.3840     0.6610     0.8160 ca         1 1PM       0.051100
     32 C46          4.0890     0.8400     1.3190 ca         1 1PM      -0.077000
     33 O47          7.2360     1.2360    -0.3520 os         1 1PM      -0.345100
     34 C48          7.4130    -0.0630     0.3180 c5         1 1PM       0.372600
     35 O49          6.1680    -0.4300     1.0120 os         1 1PM      -0.339100
     36 H4          -3.2580    -6.6400     0.0420 h4         1 1PM       0.173000
     37 H5          -0.9600    -7.7580     1.0620 h4         1 1PM       0.038100
     38 H2          -0.0700    -3.7840    -0.0680 h5         1 1PM       0.086100
     39 H14         -5.0790    -1.3800    -2.2710 ha         1 1PM       0.135000
     40 H15         -5.4630    -3.8350    -2.6130 h4         1 1PM       0.026100
     41 H22         -3.9240     0.5360    -2.4880 h1         1 1PM       0.055200
     42 H23         -2.2100     2.1550    -2.0460 h1         1 1PM       0.068200
     43 H25         -1.7540     1.5920     1.7970 h1         1 1PM       0.075200
     44 H301        -1.8780     6.5810    -1.4230 h1         1 1PM       0.050367
     45 H302        -2.3280     6.4850     0.2920 h1         1 1PM       0.050367
     46 H303        -0.6850     6.0330    -0.2270 h1         1 1PM       0.050367
     47 H311        -0.3130    -0.9470    -0.6230 hc         1 1PM       0.067200
     48 H312        -0.5290     0.7520    -1.0970 hc         1 1PM       0.067200
     49 H35          0.7070     2.2200    -0.1720 hn         1 1PM       0.310500
     50 H361         1.8060     3.3530     1.6060 h1         1 1PM       0.067200
     51 H362         1.8970     1.8490     2.5350 h1         1 1PM       0.067200
     52 H42          3.5240     3.9420    -0.0490 ha         1 1PM       0.115000
     53 H43          5.8440     3.5470    -0.9160 ha         1 1PM       0.134000
     54 H46          3.6230     0.0700     1.9290 ha         1 1PM       0.153000
     55 H481         7.6590    -0.8300    -0.4260 h2         1 1PM       0.065700
     56 H482         8.2230     0.0190     1.0530 h2         1 1PM       0.065700
     57 H221        -4.7290     0.8220    -0.9370 h1         1 1PM       0.055200
     58 H231        -3.7650     2.9030    -1.6640 h1         1 1PM       0.068200
     59 H24         -3.4400     1.2240     1.4460 h1         1 1PM       0.075200
     60 H251        -2.0530    -0.7460     1.1080 h1         1 1PM       0.120700
@<TRIPOS>BOND
     1     1     2 1   
     2     1     5 1   
     3     1     6 1   
     4     2     3 2   
     5     2    36 1   
     6     3     4 1   
     7     3    37 1   
     8     4     5 2   
     9     5    38 1   
    10     6     7 ar  
    11     6    11 ar  
    12     7     8 ar  
    13     8     9 ar  
    14     8    12 1   
    15     9    10 ar  
    16     9    39 1   
    17    10    11 ar  
    18    10    40 1   
    19    12    13 1   
    20    12    17 1   
    21    13    14 1   
    22    13    41 1   
    23    13    57 1   
    24    14    15 1   
    25    14    42 1   
    26    14    58 1   
    27    15    16 1   
    28    15    18 1   
    29    16    17 1   
    30    16    43 1   
    31    16    59 1   
    32    17    22 1   
    33    17    60 1   
    34    18    19 2   
    35    18    20 1   
    36    20    21 1   
    37    21    44 1   
    38    21    45 1   
    39    21    46 1   
    40    22    23 1   
    41    22    47 1   
    42    22    48 1   
    43    23    24 2   
    44    23    25 1   
    45    25    26 1   
    46    25    49 1   
    47    26    27 1   
    48    26    50 1   
    49    26    51 1   
    50    27    28 ar  
    51    27    32 ar  
    52    28    29 ar  
    53    28    52 1   
    54    29    30 ar  
    55    29    53 1   
    56    30    31 ar  
    57    30    33 1   
    58    31    32 ar  
    59    31    35 1   
    60    32    54 1   
    61    33    34 1   
    62    34    35 1   
    63    34    55 1   
    64    34    56 1   
@<TRIPOS>SUBSTRUCTURE
     1 1PM         1 TEMP              0 ****  ****    0 ROOT
