@<TRIPOS>MOLECULE
1PM
   60    64     1     0     0
SMALL
abcg2


@<TRIPOS>ATOM
      1 N3          -1.9610    -3.7410     0.5860 na         1 1PM      -0.193000
      2 C4          -2.2120    -5.0790     0.7830 cc         1 1PM      -0.196000
      3 C5          -1.3340    -5.4680     1.7450 cd         1 1PM       0.224900
      4 NFE         -0.5500    -4.4120     2.1380 nd         1 1PM      -0.671000
      5 C2          -0.9470    -3.3950     1.4310 cc         1 1PM       0.434400
      6 C11         -2.6090    -2.8870    -0.3170 ca         1 1PM       0.283500
      7 N12         -2.2720    -1.6220    -0.2250 nb         1 1PM      -0.289000
      8 C13         -2.8420    -0.7590    -1.0700 ca         1 1PM       0.413900
      9 C14         -3.7610    -1.2400    -2.0300 ca         1 1PM      -0.308000
     10 C15         -4.0300    -2.5860    -2.0030 ca         1 1PM       0.157900
     11 N16         -3.4620    -3.4440    -1.1490 nb         1 1PM      -0.227000
     12 N21         -2.5020     0.5410    -0.9570 nh         1 1PM      -0.772300
     13 C22         -2.9630     1.4870    -1.9650 c6         1 1PM       0.193800
     14 C23         -2.6300     2.9110    -1.5460 c6         1 1PM       0.093000
     15 N24         -2.7760     3.0290    -0.1130 n          1 1PM      -0.385800
     16 C25         -1.7160     2.3410     0.5820 c6         1 1PM       0.091000
     17 C26         -1.4750     0.9190     0.0060 c6         1 1PM       0.215500
     18 C27         -3.9490     3.3000     0.5110 c          1 1PM       0.643100
     19 O28         -4.1320     3.2140     1.7080 o          1 1PM      -0.522000
     20 O29         -4.8810     3.7100    -0.3470 os         1 1PM      -0.458100
     21 C30         -6.1430     4.0800     0.2010 c3         1 1PM       0.168900
     22 C31         -0.0680     0.7580    -0.5830 c3         1 1PM      -0.183400
     23 C32          0.9780     0.7670     0.5140 c          1 1PM       0.600100
     24 O33          0.9360    -0.0410     1.4330 o          1 1PM      -0.596100
     25 N34          1.9190     1.7180     0.4070 ns         1 1PM      -0.502900
     26 C36          3.0360     1.8660     1.3180 c3         1 1PM       0.149300
     27 C41          4.3020     1.2370     0.7930 ca         1 1PM      -0.120300
     28 C42          5.3660     2.0310     0.3920 ca         1 1PM      -0.104000
     29 C43          6.5530     1.4820    -0.1150 ca         1 1PM      -0.102000
     30 C44          6.6130     0.1160    -0.2010 ca         1 1PM       0.059100
     31 C45          5.5520    -0.6870     0.1960 ca         1 1PM       0.051100
     32 C46          4.3890    -0.1630     0.6960 ca         1 1PM      -0.077000
     33 O47          7.6150    -0.6660    -0.6710 os         1 1PM      -0.345100
     34 C48          7.2500    -2.0040    -0.3610 c5         1 1PM       0.372600
     35 O49          5.8720    -1.9870    -0.0150 os         1 1PM      -0.339100
     36 H4          -2.9720    -5.6090     0.2380 h4         1 1PM       0.173000
     37 H5          -1.2260    -6.4500     2.1790 h4         1 1PM       0.038100
     38 H2          -0.5440    -2.3930     1.4640 h5         1 1PM       0.086100
     39 H14         -4.2420    -0.6090    -2.7600 ha         1 1PM       0.135000
     40 H15         -4.7350    -3.0090    -2.7090 h4         1 1PM       0.026100
     41 H22         -2.5270     1.2700    -2.9450 h1         1 1PM       0.055200
     42 H23         -1.5970     3.1660    -1.7950 h1         1 1PM       0.068200
     43 H25         -0.8010     2.9350     0.4920 h1         1 1PM       0.075200
     44 H301        -6.7490     4.3970    -0.6430 h1         1 1PM       0.050367
     45 H302        -6.6290     3.2400     0.6950 h1         1 1PM       0.050367
     46 H303        -6.0490     4.9070     0.9040 h1         1 1PM       0.050367
     47 H311         0.0000    -0.2130    -1.0770 hc         1 1PM       0.067200
     48 H312         0.1300     1.5190    -1.3410 hc         1 1PM       0.067200
     49 H35          1.9070     2.3150    -0.4040 hn         1 1PM       0.310500
     50 H361         3.1940     2.9300     1.4910 h1         1 1PM       0.067200
     51 H362         2.7580     1.4250     2.2740 h1         1 1PM       0.067200
     52 H42          5.2850     3.1080     0.4750 ha         1 1PM       0.115000
     53 H43          7.3760     2.1120    -0.4260 ha         1 1PM       0.134000
     54 H46          3.5690    -0.7990     1.0070 ha         1 1PM       0.153000
     55 H481         7.4050    -2.6410    -1.2320 h2         1 1PM       0.065700
     56 H482         7.8420    -2.3640     0.4880 h2         1 1PM       0.065700
     57 H221        -4.0470     1.3990    -2.0600 h1         1 1PM       0.055200
     58 H231        -3.2590     3.6130    -2.0840 h1         1 1PM       0.068200
     59 H24         -1.9500     2.2780     1.6400 h1         1 1PM       0.075200
     60 H251        -1.5580     0.2140     0.8290 h1         1 1PM       0.120700
@<TRIPOS>BOND
     1     1     2 1   
     2     1     5 1   
     3     1     6 1   
     4     2     3 2   
     5     2    36 1   
     6     3     4 1   
     7     3    37 1   
     8     4     5 2   
     9     5    38 1   
    10     6     7 ar  
    11     6    11 ar  
    12     7     8 ar  
    13     8     9 ar  
    14     8    12 1   
    15     9    10 ar  
    16     9    39 1   
    17    10    11 ar  
    18    10    40 1   
    19    12    13 1   
    20    12    17 1   
    21    13    14 1   
    22    13    41 1   
    23    13    57 1   
    24    14    15 1   
    25    14    42 1   
    26    14    58 1   
    27    15    16 1   
    28    15    18 1   
    29    16    17 1   
    30    16    43 1   
    31    16    59 1   
    32    17    22 1   
    33    17    60 1   
    34    18    19 2   
    35    18    20 1   
    36    20    21 1   
    37    21    44 1   
    38    21    45 1   
    39    21    46 1   
    40    22    23 1   
    41    22    47 1   
    42    22    48 1   
    43    23    24 2   
    44    23    25 1   
    45    25    26 1   
    46    25    49 1   
    47    26    27 1   
    48    26    50 1   
    49    26    51 1   
    50    27    28 ar  
    51    27    32 ar  
    52    28    29 ar  
    53    28    52 1   
    54    29    30 ar  
    55    29    53 1   
    56    30    31 ar  
    57    30    33 1   
    58    31    32 ar  
    59    31    35 1   
    60    32    54 1   
    61    33    34 1   
    62    34    35 1   
    63    34    55 1   
    64    34    56 1   
@<TRIPOS>SUBSTRUCTURE
     1 1PM         1 TEMP              0 ****  ****    0 ROOT
