@<TRIPOS>MOLECULE
1PN
   37    37     1     0     0
SMALL
No Charge or Current Charge


@<TRIPOS>ATOM
      1 S1           0.3190    -1.2770    -0.0970 ss         1 1PN      -0.264600
      2 C2          -1.4060    -0.9090    -0.1980 c2         1 1PN      -0.105400
      3 C3          -1.7110     0.3830    -0.0190 ce         1 1PN      -0.015200
      4 N4          -0.6280     1.2780     0.2130 nu         1 1PN      -0.770200
      5 C5           0.6120     0.4880     0.4540 c5         1 1PN       0.342500
      6 C6           1.8040     1.1710    -0.2600 c3         1 1PN      -0.186700
      7 C7           1.6310     1.1570    -1.7810 c          1 1PN       0.588900
      8 O8           1.9350     0.2210    -2.5140 o          1 1PN      -0.510100
      9 C9          -3.1350     0.9290    -0.0010 c          1 1PN       0.622300
     10 O10         -3.4140     2.1060     0.2020 o          1 1PN      -0.488000
     11 O11         -4.0670    -0.0530    -0.2240 os         1 1PN      -0.433100
     12 C12         -5.4520     0.3210    -0.2230 c3         1 1PN       0.200800
     13 C13         -6.2550    -0.9350    -0.4810 c2         1 1PN      -0.231200
     14 C14         -6.4660    -1.9240     0.4050 c2         1 1PN      -0.288000
     15 C15          3.2330     0.7540     0.1840 c3         1 1PN       0.187300
     16 C16          3.5360     1.1080     1.6600 c3         1 1PN      -0.117100
     17 O17          3.3670    -0.6690     0.0310 os         1 1PN      -0.459100
     18 C18          4.6160    -1.2270    -0.0490 c          1 1PN       0.605100
     19 O19          5.6650    -0.5960    -0.0750 o          1 1PN      -0.485000
     20 C20          4.5390    -2.7390    -0.1880 c3         1 1PN      -0.156100
     21 H2          -2.1240    -1.7110    -0.3770 h4         1 1PN       0.237000
     22 HN4         -0.8250     2.1510     0.7120 hn         1 1PN       0.473000
     23 H5           0.8120     0.4580     1.5320 h2         1 1PN       0.065700
     24 H6           1.7070     2.2310     0.0010 hc         1 1PN       0.087700
     25 H7           1.1920     2.0860    -2.2070 h4         1 1PN       0.018200
     26 H12         -5.7390     0.7550     0.7450 h1         1 1PN       0.057700
     27 H12A        -5.6560     1.0640    -1.0060 h1         1 1PN       0.057700
     28 H13         -6.6770    -0.9920    -1.4870 ha         1 1PN       0.183000
     29 H14         -7.0570    -2.8050     0.1500 ha         1 1PN       0.167500
     30 H14A        -6.0510    -1.8880     1.4140 ha         1 1PN       0.167500
     31 H15          3.9520     1.2860    -0.4580 h1         1 1PN       0.088700
     32 H16          3.3390     2.1700     1.8490 hc         1 1PN       0.049367
     33 H16A         2.9190     0.5160     2.3450 hc         1 1PN       0.049367
     34 H16B         4.5890     0.9200     1.9000 hc         1 1PN       0.049367
     35 H20          3.9910    -3.1440     0.6700 hc         1 1PN       0.070700
     36 H20A         3.8730    -2.9830    -1.0230 hc         1 1PN       0.070700
     37 H20B         5.5240    -3.2040    -0.3020 hc         1 1PN       0.070700
@<TRIPOS>BOND
     1     1     2 1   
     2     1     5 1   
     3     2     3 2   
     4     2    21 1   
     5     3     4 1   
     6     3     9 1   
     7     4     5 1   
     8     4    22 1   
     9     5     6 1   
    10     5    23 1   
    11     6     7 1   
    12     6    15 1   
    13     6    24 1   
    14     7     8 2   
    15     7    25 1   
    16     9    10 2   
    17     9    11 1   
    18    11    12 1   
    19    12    13 1   
    20    12    26 1   
    21    12    27 1   
    22    13    14 2   
    23    13    28 1   
    24    14    29 1   
    25    14    30 1   
    26    15    16 1   
    27    15    17 1   
    28    15    31 1   
    29    16    32 1   
    30    16    33 1   
    31    16    34 1   
    32    17    18 1   
    33    18    19 2   
    34    18    20 1   
    35    20    35 1   
    36    20    36 1   
    37    20    37 1   
@<TRIPOS>SUBSTRUCTURE
     1 1PN         1 TEMP              0 ****  ****    0 ROOT
