@<TRIPOS>MOLECULE
1PN
   37    37     1     0     0
SMALL
abcg2


@<TRIPOS>ATOM
      1 S1           0.5050    -1.2250    -0.0770 ss         1 1PN      -0.264600
      2 C2          -1.2310    -1.0350    -0.1100 c2         1 1PN      -0.105400
      3 C3          -1.6050     0.2340     0.0760 ce         1 1PN      -0.015200
      4 N4          -0.5670     1.1570     0.2020 nu         1 1PN      -0.770200
      5 C5           0.7090     0.5240     0.4990 c5         1 1PN       0.342500
      6 C6           1.8590     1.2230    -0.2300 c3         1 1PN      -0.186700
      7 C7           1.6920     1.0610    -1.7250 c          1 1PN       0.588900
      8 O8           2.6010     0.8540    -2.4880 o          1 1PN      -0.510100
      9 C9          -2.9840     0.7420     0.0840 c          1 1PN       0.622300
     10 O10         -3.2510     1.9120     0.2330 o          1 1PN      -0.488000
     11 O11         -3.8800    -0.2170    -0.0790 os         1 1PN      -0.433100
     12 C12         -5.2660     0.1600    -0.1050 c3         1 1PN       0.200800
     13 C13         -6.0490    -1.0630    -0.4410 c2         1 1PN      -0.231200
     14 C14         -7.0220    -1.5390     0.3240 c2         1 1PN      -0.288000
     15 C15          3.2490     0.8260     0.2450 c3         1 1PN       0.187300
     16 C16          3.5490     1.2240     1.6780 c3         1 1PN      -0.117100
     17 O17          3.3110    -0.6010     0.1010 os         1 1PN      -0.459100
     18 C18          4.4660    -1.1900    -0.1950 c          1 1PN       0.605100
     19 O19          5.5070    -0.5960    -0.3150 o          1 1PN      -0.485000
     20 C20          4.2920    -2.6670    -0.3880 c3         1 1PN      -0.156100
     21 H2          -1.8710    -1.8780    -0.3190 h4         1 1PN       0.237000
     22 HN4         -0.7640     1.9410     0.8080 hn         1 1PN       0.473000
     23 H5           0.9000     0.5120     1.5770 h2         1 1PN       0.065700
     24 H6           1.7420     2.2980    -0.0310 hc         1 1PN       0.087700
     25 H7           0.6590     1.1840    -2.0890 h4         1 1PN       0.018200
     26 H12         -5.5630     0.5680     0.8640 h1         1 1PN       0.057700
     27 H12A        -5.4180     0.9340    -0.8630 h1         1 1PN       0.057700
     28 H13         -5.8110    -1.5460    -1.3840 ha         1 1PN       0.183000
     29 H14         -7.5970    -2.4070     0.0310 ha         1 1PN       0.167500
     30 H14A        -7.2840    -1.0770     1.2680 ha         1 1PN       0.167500
     31 H15          3.9830     1.2930    -0.4140 h1         1 1PN       0.088700
     32 H16          3.4010     2.2970     1.8010 hc         1 1PN       0.049367
     33 H16A         2.9100     0.7090     2.3940 hc         1 1PN       0.049367
     34 H16B         4.5860     1.0040     1.9290 hc         1 1PN       0.049367
     35 H20          3.5520    -3.0800     0.2940 hc         1 1PN       0.070700
     36 H20A         3.9410    -2.8550    -1.4040 hc         1 1PN       0.070700
     37 H20B         5.2400    -3.1810    -0.2560 hc         1 1PN       0.070700
@<TRIPOS>BOND
     1     1     2 1   
     2     1     5 1   
     3     2     3 2   
     4     2    21 1   
     5     3     4 1   
     6     3     9 1   
     7     4     5 1   
     8     4    22 1   
     9     5     6 1   
    10     5    23 1   
    11     6     7 1   
    12     6    15 1   
    13     6    24 1   
    14     7     8 2   
    15     7    25 1   
    16     9    10 2   
    17     9    11 1   
    18    11    12 1   
    19    12    13 1   
    20    12    26 1   
    21    12    27 1   
    22    13    14 2   
    23    13    28 1   
    24    14    29 1   
    25    14    30 1   
    26    15    16 1   
    27    15    17 1   
    28    15    31 1   
    29    16    32 1   
    30    16    33 1   
    31    16    34 1   
    32    17    18 1   
    33    18    19 2   
    34    18    20 1   
    35    20    35 1   
    36    20    36 1   
    37    20    37 1   
@<TRIPOS>SUBSTRUCTURE
     1 1PN         1 TEMP              0 ****  ****    0 ROOT
