@<TRIPOS>MOLECULE
1PO
   83    84     1     0     0
SMALL
abcg2


@<TRIPOS>ATOM
      1 O01        -10.3180    -2.6840    -0.6100 o          1 1PO      -0.580100
      2 C02         -9.1110    -2.5950    -0.7050 c          1 1PO       0.604900
      3 N03         -8.2990    -1.9430     0.1620 n          1 1PO      -0.329000
      4 C04         -8.8310    -1.2630     1.3220 c3         1 1PO       0.073300
      5 C05         -6.9270    -1.9170    -0.0810 c2         1 1PO      -0.086400
      6 C06         -6.0110    -1.3170     0.6770 c2         1 1PO      -0.273200
      7 C07         -4.5550    -1.3340     0.3320 c3         1 1PO      -0.046200
      8 C08         -4.0140     0.0380    -0.0880 c3         1 1PO       0.187300
      9 O09         -4.3580     1.0190     0.8740 os         1 1PO      -0.463000
     10 C10         -5.3800     1.9030     0.4840 c3         1 1PO       0.147900
     11 C11         -2.4930     0.0330    -0.1990 c3         1 1PO      -0.168700
     12 C12         -1.9530    -1.0060    -1.1880 c3         1 1PO      -0.086100
     13 C13         -1.9530     1.3860    -0.6260 c          1 1PO       0.588300
     14 O14         -2.5790     2.1360    -1.3480 o          1 1PO      -0.538100
     15 C15         -0.5830     1.6850    -0.1670 ce         1 1PO      -0.311200
     16 C16          0.0790     2.7940    -0.4990 c2         1 1PO      -0.129200
     17 C17          1.4820     3.0680    -0.0710 c3         1 1PO      -0.064500
     18 C18          1.5860     4.4570     0.5600 c3         1 1PO      -0.086100
     19 C19          2.4380     2.9240    -1.2760 c3         1 1PO       0.189300
     20 O20          2.2000     1.7100    -1.9510 os         1 1PO      -0.439000
     21 C21          1.5150     1.8330    -3.1700 c3         1 1PO       0.142900
     22 C22          3.9320     3.0410    -0.9070 c3         1 1PO      -0.048700
     23 C23          4.7940     2.7820    -2.1410 c3         1 1PO      -0.083100
     24 C24          4.3330     2.1920     0.2980 c6         1 1PO       0.178300
     25 C25          5.8170     2.2270     0.6730 c6         1 1PO      -0.131700
     26 C26          6.2730     3.6060     1.1260 c3         1 1PO      -0.086100
     27 C27          6.0380     1.2090     1.7930 c6         1 1PO       0.153600
     28 O28          5.5050    -0.0630     1.4680 os         1 1PO      -0.461000
     29 C29          4.1460     0.0410     1.1620 c6         1 1PO       0.431600
     30 O30          3.9510     0.8510     0.0520 os         1 1PO      -0.444000
     31 C31          3.5690    -1.3190     0.8800 ca         1 1PO      -0.119300
     32 C32          2.4670    -1.4520     0.0330 ca         1 1PO      -0.044500
     33 C33          1.8830    -2.6860    -0.1810 ca         1 1PO      -0.183500
     34 C34          2.3880    -3.8270     0.4460 ca         1 1PO       0.146100
     35 C35          3.4870    -3.7050     1.2910 ca         1 1PO      -0.183500
     36 C36          4.0620    -2.4560     1.5020 ca         1 1PO      -0.044500
     37 O37          1.7570    -4.9870     0.1800 os         1 1PO      -0.344100
     38 C38          2.2520    -6.1730     0.7670 c3         1 1PO       0.148900
     39 H1          -8.5510    -3.0530    -1.5330 h5         1 1PO       0.014200
     40 H2          -8.3720    -1.6490     2.2330 h1         1 1PO       0.049700
     41 H3          -8.6340    -0.1920     1.2630 h1         1 1PO       0.049700
     42 H4          -9.9030    -1.4190     1.3760 h1         1 1PO       0.049700
     43 H5          -6.6300    -2.4440    -0.9820 h4         1 1PO       0.183000
     44 H6          -6.2980    -0.7940     1.5820 ha         1 1PO       0.187000
     45 H7          -3.9780    -1.6900     1.1930 hc         1 1PO       0.049700
     46 H8          -4.3810    -2.0460    -0.4780 hc         1 1PO       0.049700
     47 H9          -4.4470     0.2950    -1.0640 h1         1 1PO       0.053700
     48 H10         -5.5090     2.6320     1.2840 h1         1 1PO       0.031700
     49 H11         -5.1260     2.4410    -0.4350 h1         1 1PO       0.031700
     50 H12         -6.3380     1.3950     0.3280 h1         1 1PO       0.031700
     51 H13         -2.0800    -0.1990     0.7900 hc         1 1PO       0.075700
     52 H14         -2.3820    -0.8640    -2.1820 hc         1 1PO       0.042700
     53 H15         -0.8680    -0.9320    -1.2840 hc         1 1PO       0.042700
     54 H16         -2.1770    -2.0200    -0.8600 hc         1 1PO       0.042700
     55 H17         -0.0990     0.9390     0.4560 ha         1 1PO       0.186000
     56 H18         -0.4090     3.5400    -1.1230 ha         1 1PO       0.185000
     57 H19          1.7430     2.3140     0.6770 hc         1 1PO       0.067700
     58 H20          2.5760     4.6350     0.9810 hc         1 1PO       0.038367
     59 H21          1.3900     5.2410    -0.1750 hc         1 1PO       0.038367
     60 H22          0.8650     4.5710     1.3690 hc         1 1PO       0.038367
     61 H23          2.2350     3.7650    -1.9570 h1         1 1PO       0.032700
     62 H24          0.4980     2.2240    -3.0530 h1         1 1PO       0.029367
     63 H25          2.0460     2.4790    -3.8790 h1         1 1PO       0.029367
     64 H26          1.4400     0.8370    -3.6070 h1         1 1PO       0.029367
     65 H27          4.0890     4.0830    -0.6120 hc         1 1PO       0.050700
     66 H28          4.8110     1.7280    -2.4130 hc         1 1PO       0.040367
     67 H29          4.4150     3.3410    -2.9990 hc         1 1PO       0.040367
     68 H30          5.8230     3.1060    -1.9820 hc         1 1PO       0.040367
     69 H31          3.7760     2.5580     1.1790 h1         1 1PO       0.026700
     70 H32          6.4120     1.9120    -0.1910 hc         1 1PO       0.078700
     71 H33          5.6620     3.9690     1.9560 hc         1 1PO       0.036700
     72 H34          7.3090     3.5800     1.4680 hc         1 1PO       0.036700
     73 H35          6.2140     4.3400     0.3240 hc         1 1PO       0.036700
     74 H36          7.1030     1.0700     1.9840 h1         1 1PO       0.046700
     75 H37          5.5790     1.5800     2.7220 h1         1 1PO       0.046700
     76 H38          3.6240     0.4910     2.0300 h2         1 1PO       0.020700
     77 H39          2.0650    -0.5850    -0.4750 ha         1 1PO       0.131500
     78 H40          1.0300    -2.7780    -0.8420 ha         1 1PO       0.119500
     79 H41          3.9110    -4.5620     1.7960 ha         1 1PO       0.119500
     80 H42          4.9110    -2.3890     2.1700 ha         1 1PO       0.131500
     81 H43          3.2810    -6.3790     0.4620 h1         1 1PO       0.040033
     82 H44          2.2100    -6.1380     1.8590 h1         1 1PO       0.040033
     83 H45          1.6150    -6.9810     0.4190 h1         1 1PO       0.040033
@<TRIPOS>BOND
     1     1     2 2   
     2     2     3 1   
     3     2    39 1   
     4     3     4 1   
     5     3     5 1   
     6     4    40 1   
     7     4    41 1   
     8     4    42 1   
     9     5     6 2   
    10     5    43 1   
    11     6     7 1   
    12     6    44 1   
    13     7     8 1   
    14     7    45 1   
    15     7    46 1   
    16     8     9 1   
    17     8    11 1   
    18     8    47 1   
    19     9    10 1   
    20    10    48 1   
    21    10    49 1   
    22    10    50 1   
    23    11    12 1   
    24    11    13 1   
    25    11    51 1   
    26    12    52 1   
    27    12    53 1   
    28    12    54 1   
    29    13    14 2   
    30    13    15 1   
    31    15    16 2   
    32    15    55 1   
    33    16    17 1   
    34    16    56 1   
    35    17    18 1   
    36    17    19 1   
    37    17    57 1   
    38    18    58 1   
    39    18    59 1   
    40    18    60 1   
    41    19    20 1   
    42    19    22 1   
    43    19    61 1   
    44    20    21 1   
    45    21    62 1   
    46    21    63 1   
    47    21    64 1   
    48    22    23 1   
    49    22    24 1   
    50    22    65 1   
    51    23    66 1   
    52    23    67 1   
    53    23    68 1   
    54    24    25 1   
    55    24    30 1   
    56    24    69 1   
    57    25    26 1   
    58    25    27 1   
    59    25    70 1   
    60    26    71 1   
    61    26    72 1   
    62    26    73 1   
    63    27    28 1   
    64    27    74 1   
    65    27    75 1   
    66    28    29 1   
    67    29    30 1   
    68    29    31 1   
    69    29    76 1   
    70    31    32 ar  
    71    31    36 ar  
    72    32    33 ar  
    73    32    77 1   
    74    33    34 ar  
    75    33    78 1   
    76    34    35 ar  
    77    34    37 1   
    78    35    36 ar  
    79    35    79 1   
    80    36    80 1   
    81    37    38 1   
    82    38    81 1   
    83    38    82 1   
    84    38    83 1   
@<TRIPOS>SUBSTRUCTURE
     1 1PO         1 TEMP              0 ****  ****    0 ROOT
