@<TRIPOS>MOLECULE
1PO
   83    84     1     0     0
SMALL
No Charge or Current Charge


@<TRIPOS>ATOM
      1 O01        -11.2970    -0.9920     0.4590 o          1 1PO      -0.580100
      2 C02        -10.2060    -1.0790    -0.0960 c          1 1PO       0.604900
      3 N03         -8.9740    -0.8090     0.5480 n          1 1PO      -0.329000
      4 C04         -8.9870    -0.3840     1.9710 c3         1 1PO       0.073300
      5 C05         -7.7650    -0.9560    -0.1770 c2         1 1PO      -0.086400
      6 C06         -6.5300    -0.9250     0.3520 c2         1 1PO      -0.273200
      7 C07         -5.2420    -1.0860    -0.4340 c3         1 1PO      -0.046200
      8 C08         -4.4730     0.2400    -0.7050 c3         1 1PO       0.187300
      9 O09         -4.1650     0.8630     0.5610 os         1 1PO      -0.463000
     10 C10         -5.0660     1.9070     0.9820 c3         1 1PO       0.147900
     11 C11         -3.1170     0.0440    -1.4300 c3         1 1PO      -0.168700
     12 C12         -3.2320    -0.6310    -2.8220 c3         1 1PO      -0.086100
     13 C13         -2.3930     1.3980    -1.5510 c          1 1PO       0.588300
     14 O14         -2.8530     2.3080    -2.2320 o          1 1PO      -0.538100
     15 C15         -1.0780     1.5400    -0.8560 ce         1 1PO      -0.311200
     16 C16         -0.2350     2.5850    -1.0330 c2         1 1PO      -0.129200
     17 C17          1.1250     2.7390    -0.3740 c3         1 1PO      -0.064500
     18 C18          1.1830     4.1100     0.3440 c3         1 1PO      -0.086100
     19 C19          2.3040     2.5280    -1.3850 c3         1 1PO       0.189300
     20 O20          2.1790     1.2230    -2.0020 os         1 1PO      -0.439000
     21 C21          1.5740     1.1930    -3.3090 c3         1 1PO       0.142900
     22 C22          3.7580     2.7020    -0.8040 c3         1 1PO      -0.048700
     23 C23          4.8270     2.4420    -1.9010 c3         1 1PO      -0.083100
     24 C24          4.0700     1.9820     0.5710 c6         1 1PO       0.178300
     25 C25          5.3620     2.4780     1.3020 c6         1 1PO      -0.131700
     26 C26          5.3080     3.9760     1.7170 c3         1 1PO      -0.086100
     27 C27          5.6000     1.5810     2.5450 c6         1 1PO       0.153600
     28 O28          5.5820     0.1940     2.1600 os         1 1PO      -0.461000
     29 C29          4.3380    -0.1990     1.5550 c6         1 1PO       0.431600
     30 O30          4.1970     0.5640     0.3470 os         1 1PO      -0.444000
     31 C31          4.3620    -1.7010     1.2190 ca         1 1PO      -0.119300
     32 C32          3.6270    -2.2010     0.1220 ca         1 1PO      -0.044500
     33 C33          3.6330    -3.5750    -0.1720 ca         1 1PO      -0.183500
     34 C34          4.3610    -4.4710     0.6240 ca         1 1PO       0.146100
     35 C35          5.0880    -3.9830     1.7290 ca         1 1PO      -0.183500
     36 C36          5.0840    -2.6080     2.0250 ca         1 1PO      -0.044500
     37 O37          4.3280    -5.8090     0.2850 os         1 1PO      -0.344100
     38 C38          5.0400    -6.8080     1.0370 c3         1 1PO       0.148900
     39 H1         -10.0840    -1.3840    -1.1530 h5         1 1PO       0.014200
     40 H2          -8.7780    -1.2470     2.6140 h1         1 1PO       0.049700
     41 H3          -8.2210     0.3830     2.1380 h1         1 1PO       0.049700
     42 H4          -9.9580     0.0450     2.2500 h1         1 1PO       0.049700
     43 H5          -7.9120    -1.1020    -1.2500 h4         1 1PO       0.183000
     44 H6          -6.3750    -0.7980     1.4240 ha         1 1PO       0.187000
     45 H7          -4.5790    -1.7860     0.0880 hc         1 1PO       0.049700
     46 H8          -5.4750    -1.5550    -1.3980 hc         1 1PO       0.049700
     47 H9          -5.1040     0.8960    -1.3210 h1         1 1PO       0.053700
     48 H10         -4.7610     2.3000     1.9590 h1         1 1PO       0.031700
     49 H11         -5.0570     2.7370     0.2640 h1         1 1PO       0.031700
     50 H12         -6.0970     1.5420     1.0700 h1         1 1PO       0.031700
     51 H13         -2.5030    -0.6110    -0.8010 hc         1 1PO       0.075700
     52 H14         -3.9210    -0.0770    -3.4710 hc         1 1PO       0.042700
     53 H15         -2.2520    -0.6620    -3.3140 hc         1 1PO       0.042700
     54 H16         -3.5900    -1.6630    -2.7370 hc         1 1PO       0.042700
     55 H17         -0.7910     0.7130    -0.2110 ha         1 1PO       0.186000
     56 H18         -0.5050     3.4080    -1.7000 ha         1 1PO       0.185000
     57 H19          1.2090     1.9680     0.4030 hc         1 1PO       0.067700
     58 H20          2.0840     4.2060     0.9590 hc         1 1PO       0.038367
     59 H21          1.1720     4.9320    -0.3830 hc         1 1PO       0.038367
     60 H22          0.3180     4.2300     1.0080 hc         1 1PO       0.038367
     61 H23          2.1990     3.3020    -2.1580 h1         1 1PO       0.032700
     62 H24          0.5510     1.5870    -3.2910 h1         1 1PO       0.029367
     63 H25          2.1610     1.7880    -4.0210 h1         1 1PO       0.029367
     64 H26          1.5310     0.1620    -3.6820 h1         1 1PO       0.029367
     65 H27          3.8250     3.7770    -0.6120 hc         1 1PO       0.050700
     66 H28          4.8960     1.3740    -2.1420 hc         1 1PO       0.040367
     67 H29          4.5750     2.9810    -2.8220 hc         1 1PO       0.040367
     68 H30          5.8160     2.7850    -1.5800 hc         1 1PO       0.040367
     69 H31          3.2250     2.1460     1.2530 h1         1 1PO       0.026700
     70 H32          6.2270     2.3620     0.6380 hc         1 1PO       0.078700
     71 H33          4.4140     4.1940     2.3150 hc         1 1PO       0.036700
     72 H34          6.1840     4.2480     2.3200 hc         1 1PO       0.036700
     73 H35          5.3040     4.6420     0.8470 hc         1 1PO       0.036700
     74 H36          6.5730     1.8120     3.0010 h1         1 1PO       0.046700
     75 H37          4.8180     1.7550     3.2990 h1         1 1PO       0.046700
     76 H38          3.4970     0.0000     2.2360 h2         1 1PO       0.020700
     77 H39          3.0480    -1.5250    -0.5060 ha         1 1PO       0.131500
     78 H40          3.0660    -3.9480    -1.0210 ha         1 1PO       0.119500
     79 H41          5.6580    -4.6500     2.3700 ha         1 1PO       0.119500
     80 H42          5.6440    -2.2490     2.8870 ha         1 1PO       0.131500
     81 H43          6.1190    -6.6050     1.0310 h1         1 1PO       0.040033
     82 H44          4.6910    -6.8360     2.0770 h1         1 1PO       0.040033
     83 H45          4.8790    -7.8000     0.5980 h1         1 1PO       0.040033
@<TRIPOS>BOND
     1     1     2 2   
     2     2     3 1   
     3     2    39 1   
     4     3     4 1   
     5     3     5 1   
     6     4    40 1   
     7     4    41 1   
     8     4    42 1   
     9     5     6 2   
    10     5    43 1   
    11     6     7 1   
    12     6    44 1   
    13     7     8 1   
    14     7    45 1   
    15     7    46 1   
    16     8     9 1   
    17     8    11 1   
    18     8    47 1   
    19     9    10 1   
    20    10    48 1   
    21    10    49 1   
    22    10    50 1   
    23    11    12 1   
    24    11    13 1   
    25    11    51 1   
    26    12    52 1   
    27    12    53 1   
    28    12    54 1   
    29    13    14 2   
    30    13    15 1   
    31    15    16 2   
    32    15    55 1   
    33    16    17 1   
    34    16    56 1   
    35    17    18 1   
    36    17    19 1   
    37    17    57 1   
    38    18    58 1   
    39    18    59 1   
    40    18    60 1   
    41    19    20 1   
    42    19    22 1   
    43    19    61 1   
    44    20    21 1   
    45    21    62 1   
    46    21    63 1   
    47    21    64 1   
    48    22    23 1   
    49    22    24 1   
    50    22    65 1   
    51    23    66 1   
    52    23    67 1   
    53    23    68 1   
    54    24    25 1   
    55    24    30 1   
    56    24    69 1   
    57    25    26 1   
    58    25    27 1   
    59    25    70 1   
    60    26    71 1   
    61    26    72 1   
    62    26    73 1   
    63    27    28 1   
    64    27    74 1   
    65    27    75 1   
    66    28    29 1   
    67    29    30 1   
    68    29    31 1   
    69    29    76 1   
    70    31    32 ar  
    71    31    36 ar  
    72    32    33 ar  
    73    32    77 1   
    74    33    34 ar  
    75    33    78 1   
    76    34    35 ar  
    77    34    37 1   
    78    35    36 ar  
    79    35    79 1   
    80    36    80 1   
    81    37    38 1   
    82    38    81 1   
    83    38    82 1   
    84    38    83 1   
@<TRIPOS>SUBSTRUCTURE
     1 1PO         1 TEMP              0 ****  ****    0 ROOT
