@<TRIPOS>MOLECULE
1PP
   47    49     1     0     0
SMALL
abcg2


@<TRIPOS>ATOM
      1 O27          0.6800    -1.5550     0.3310 o          1 1PP      -0.584100
      2 C17          0.5650    -0.6070    -0.4160 c          1 1PP       0.672100
      3 N18          1.6230     0.0760    -0.9560 ns         1 1PP      -0.173000
      4 C19          2.9580    -0.2300    -0.6940 ca         1 1PP       0.000000
      5 C20          3.8590     0.8020    -0.4140 ca         1 1PP       0.072000
      6 CL1          3.2920     2.4270    -0.3400 cl         1 1PP      -0.179000
      7 C21          5.2040     0.5190    -0.1970 ca         1 1PP       0.137000
      8 CL2          6.3130     1.7950     0.1320 cl         1 1PP      -0.170000
      9 C22          5.6620    -0.7870    -0.2270 ca         1 1PP      -0.111000
     10 C23          4.7660    -1.8100    -0.4950 ca         1 1PP      -0.080000
     11 C24          3.4310    -1.5390    -0.7390 ca         1 1PP      -0.103000
     12 N16         -0.6460    -0.0990    -0.8070 ns         1 1PP      -0.423100
     13 C11         -1.8510    -0.6390    -0.3920 cc         1 1PP       0.007600
     14 C10         -2.2770    -1.9370    -0.2750 cd         1 1PP      -0.209000
     15 C9          -3.6280    -1.8350     0.1220 cd         1 1PP       0.276300
     16 C12         -4.5720    -2.9700     0.4190 c3         1 1PP      -0.072300
     17 C15         -4.0700    -3.7100     1.6660 c3         1 1PP      -0.080100
     18 C14         -5.9880    -2.4560     0.6760 c3         1 1PP      -0.080100
     19 C13         -4.5900    -3.9400    -0.7680 c3         1 1PP      -0.080100
     20 N8          -3.9930    -0.5760     0.2270 nc         1 1PP      -0.504800
     21 N7          -2.9050     0.1530    -0.0630 na         1 1PP       0.193000
     22 C5          -2.9780     1.5620    -0.0450 ca         1 1PP       0.011800
     23 C6          -4.0850     2.1910    -0.6030 ca         1 1PP      -0.108500
     24 C4          -1.9670     2.3110     0.5490 ca         1 1PP      -0.108500
     25 C3          -2.0590     3.6960     0.5590 ca         1 1PP      -0.102500
     26 C2          -3.1600     4.3320     0.0030 ca         1 1PP      -0.109000
     27 C1          -4.1750     3.5740    -0.5700 ca         1 1PP      -0.102500
     28 H18          1.4420     0.9430    -1.4390 hn         1 1PP       0.161000
     29 H22          6.7070    -0.9970    -0.0500 ha         1 1PP       0.135000
     30 H23          5.1190    -2.8310    -0.5320 ha         1 1PP       0.127000
     31 H24          2.7550    -2.3450    -0.9800 ha         1 1PP       0.142000
     32 H16         -0.6800     0.6590    -1.4740 hn         1 1PP       0.329500
     33 H10         -1.7010    -2.8270    -0.4630 ha         1 1PP       0.160000
     34 H151        -4.0430    -3.0490     2.5340 hc         1 1PP       0.037144
     35 H152        -4.7270    -4.5500     1.9020 hc         1 1PP       0.037144
     36 H153        -3.0640    -4.1080     1.5210 hc         1 1PP       0.037144
     37 H141        -6.3890    -1.9270    -0.1890 hc         1 1PP       0.037144
     38 H142        -6.6500    -3.2960     0.8920 hc         1 1PP       0.037144
     39 H143        -6.0230    -1.7770     1.5280 hc         1 1PP       0.037144
     40 H131        -3.5980    -4.3450    -0.9750 hc         1 1PP       0.037144
     41 H132        -5.2520    -4.7810    -0.5560 hc         1 1PP       0.037144
     42 H133        -4.9470    -3.4500    -1.6750 hc         1 1PP       0.037144
     43 H6          -4.8700     1.6020    -1.0560 ha         1 1PP       0.133500
     44 H4          -1.1250     1.8240     1.0190 ha         1 1PP       0.133500
     45 H3          -1.2700     4.2760     1.0200 ha         1 1PP       0.119000
     46 H2          -3.2310     5.4110     0.0200 ha         1 1PP       0.118000
     47 H1          -5.0390     4.0610    -1.0020 ha         1 1PP       0.119000
@<TRIPOS>BOND
     1     1     2 2   
     2     2     3 1   
     3     2    12 1   
     4     3     4 1   
     5     3    28 1   
     6     4     5 ar  
     7     4    11 ar  
     8     5     6 1   
     9     5     7 ar  
    10     7     8 1   
    11     7     9 ar  
    12     9    10 ar  
    13     9    29 1   
    14    10    11 ar  
    15    10    30 1   
    16    11    31 1   
    17    12    13 1   
    18    12    32 1   
    19    13    14 2   
    20    13    21 1   
    21    14    15 1   
    22    14    33 1   
    23    15    16 1   
    24    15    20 2   
    25    16    17 1   
    26    16    18 1   
    27    16    19 1   
    28    17    34 1   
    29    17    35 1   
    30    17    36 1   
    31    18    37 1   
    32    18    38 1   
    33    18    39 1   
    34    19    40 1   
    35    19    41 1   
    36    19    42 1   
    37    20    21 1   
    38    21    22 1   
    39    22    23 ar  
    40    22    24 ar  
    41    23    27 ar  
    42    23    43 1   
    43    24    25 ar  
    44    24    44 1   
    45    25    26 ar  
    46    25    45 1   
    47    26    27 ar  
    48    26    46 1   
    49    27    47 1   
@<TRIPOS>SUBSTRUCTURE
     1 1PP         1 TEMP              0 ****  ****    0 ROOT
