@<TRIPOS>MOLECULE
1PP
   47    49     1     0     0
SMALL
No Charge or Current Charge


@<TRIPOS>ATOM
      1 O27          0.6500    -2.0410    -0.1150 o          1 1PP      -0.584100
      2 C17          0.6020    -0.8260    -0.2380 c          1 1PP       0.672100
      3 N18          1.7060    -0.0100    -0.4290 ns         1 1PP      -0.173000
      4 C19          3.0990    -0.2870    -0.5530 ca         1 1PP       0.000000
      5 C20          3.9910     0.8070    -0.6400 ca         1 1PP       0.072000
      6 Cl1          3.3620     2.4620    -0.5890 cl         1 1PP      -0.179000
      7 C21          5.3800     0.5860    -0.7660 ca         1 1PP       0.137000
      8 Cl2          6.5110     1.9360    -0.8740 cl         1 1PP      -0.170000
      9 C22          5.8840    -0.7230    -0.8070 ca         1 1PP      -0.111000
     10 C23          5.0060    -1.8140    -0.7250 ca         1 1PP      -0.080000
     11 C24          3.6220    -1.6010    -0.6000 ca         1 1PP      -0.103000
     12 N16         -0.5740    -0.1020    -0.1920 ns         1 1PP      -0.423100
     13 C11         -1.8790    -0.5600    -0.0170 cc         1 1PP       0.007600
     14 C10         -2.3390    -1.8370     0.1190 cd         1 1PP      -0.209000
     15 C9          -3.7530    -1.7790     0.2500 cd         1 1PP       0.276300
     16 C12         -4.6770    -2.9850     0.4260 c3         1 1PP      -0.072300
     17 C15         -4.2800    -3.7430     1.7200 c3         1 1PP      -0.080100
     18 C14         -6.1750    -2.5730     0.5340 c3         1 1PP      -0.080100
     19 C13         -4.5140    -3.9300    -0.7940 c3         1 1PP      -0.080100
     20 N8          -4.2120    -0.5350     0.2060 nc         1 1PP      -0.504800
     21 N7          -3.0530     0.1830     0.0360 na         1 1PP       0.193000
     22 C5          -3.0940     1.5780    -0.0140 ca         1 1PP       0.011800
     23 C6          -3.8500     2.2310    -1.0090 ca         1 1PP      -0.108500
     24 C4          -2.3790     2.3480     0.9280 ca         1 1PP      -0.108500
     25 C3          -2.4160     3.7520     0.8710 ca         1 1PP      -0.102500
     26 C2          -3.1670     4.3960    -0.1270 ca         1 1PP      -0.109000
     27 C1          -3.8860     3.6360    -1.0650 ca         1 1PP      -0.102500
     28 H18          1.4890     0.9750    -0.4950 hn         1 1PP       0.161000
     29 H22          6.9540    -0.8900    -0.9040 ha         1 1PP       0.135000
     30 H23          5.3970    -2.8290    -0.7610 ha         1 1PP       0.127000
     31 H24          2.9770    -2.4710    -0.5470 ha         1 1PP       0.142000
     32 H16         -0.4480     0.8950    -0.3080 hn         1 1PP       0.329500
     33 H10         -1.7470    -2.7440     0.1250 ha         1 1PP       0.160000
     34 H151        -4.3670    -3.0880     2.5950 hc         1 1PP       0.037144
     35 H152        -4.9270    -4.6140     1.8810 hc         1 1PP       0.037144
     36 H153        -3.2440    -4.1000     1.6680 hc         1 1PP       0.037144
     37 H141        -6.5060    -2.0450    -0.3690 hc         1 1PP       0.037144
     38 H142        -6.8160    -3.4550     0.6590 hc         1 1PP       0.037144
     39 H143        -6.3430    -1.9150     1.3960 hc         1 1PP       0.037144
     40 H131        -3.4820    -4.2910    -0.8810 hc         1 1PP       0.037144
     41 H132        -5.1690    -4.8060    -0.7050 hc         1 1PP       0.037144
     42 H133        -4.7690    -3.4090    -1.7250 hc         1 1PP       0.037144
     43 H6          -4.4070     1.6480    -1.7390 ha         1 1PP       0.133500
     44 H4          -1.8020     1.8570     1.7090 ha         1 1PP       0.133500
     45 H3          -1.8630     4.3410     1.6000 ha         1 1PP       0.119000
     46 H2          -3.1950     5.4830    -0.1710 ha         1 1PP       0.118000
     47 H1          -4.4700     4.1340    -1.8360 ha         1 1PP       0.119000
@<TRIPOS>BOND
     1     1     2 2   
     2     2     3 1   
     3     2    12 1   
     4     3     4 1   
     5     3    28 1   
     6     4     5 ar  
     7     4    11 ar  
     8     5     6 1   
     9     5     7 ar  
    10     7     8 1   
    11     7     9 ar  
    12     9    10 ar  
    13     9    29 1   
    14    10    11 ar  
    15    10    30 1   
    16    11    31 1   
    17    12    13 1   
    18    12    32 1   
    19    13    14 2   
    20    13    21 1   
    21    14    15 1   
    22    14    33 1   
    23    15    16 1   
    24    15    20 2   
    25    16    17 1   
    26    16    18 1   
    27    16    19 1   
    28    17    34 1   
    29    17    35 1   
    30    17    36 1   
    31    18    37 1   
    32    18    38 1   
    33    18    39 1   
    34    19    40 1   
    35    19    41 1   
    36    19    42 1   
    37    20    21 1   
    38    21    22 1   
    39    22    23 ar  
    40    22    24 ar  
    41    23    27 ar  
    42    23    43 1   
    43    24    25 ar  
    44    24    44 1   
    45    25    26 ar  
    46    25    45 1   
    47    26    27 ar  
    48    26    46 1   
    49    27    47 1   
@<TRIPOS>SUBSTRUCTURE
     1 1PP         1 TEMP              0 ****  ****    0 ROOT
