@<TRIPOS>MOLECULE
1PQ
   40    41     1     0     0
SMALL
No Charge or Current Charge


@<TRIPOS>ATOM
      1 C1           4.0190    -3.0610    -1.2220 c3         1 1PQ       0.148900
      2 O1           2.6330    -2.7660    -0.9720 os         1 1PQ      -0.342100
      3 C2           2.2060    -1.5140    -0.5850 ca         1 1PQ       0.206100
      4 C3           0.8370    -1.3340    -0.3670 ca         1 1PQ      -0.258000
      5 C4           0.3330    -0.0860     0.0310 ca         1 1PQ       0.394000
      6 N1          -1.0470     0.0670     0.2430 nu         1 1PQ      -0.946200
      7 C5          -1.9520    -0.9140     0.8550 c3         1 1PQ       0.234500
      8 C6          -1.5120    -1.1750     2.3100 c3         1 1PQ      -0.123100
      9 C7          -3.4130    -0.4040     0.7780 c3         1 1PQ      -0.084400
     10 C8          -3.9740    -0.3000    -0.6620 c3         1 1PQ      -0.078400
     11 C9          -5.4450     0.1630    -0.6970 c3         1 1PQ       0.148800
     12 N2          -5.9560     0.2480    -2.0770 n8         1 1PQ      -0.993200
     13 C10          1.2060     1.0300     0.2100 ca         1 1PQ       0.188000
     14 N3           0.7230     2.2550     0.5880 nb         1 1PQ      -0.669000
     15 C11          1.5920     3.2800     0.7470 ca         1 1PQ       0.323900
     16 C12          2.9740     3.1460     0.5410 ca         1 1PQ      -0.147000
     17 C13          3.4880     1.9000     0.1530 ca         1 1PQ      -0.088000
     18 C14          2.5950     0.8260    -0.0160 ca         1 1PQ       0.005000
     19 C15          3.0880    -0.4330    -0.4070 ca         1 1PQ      -0.269000
     20 H1           4.4110    -2.4350    -2.0330 h1         1 1PQ       0.040367
     21 H2           4.6220    -2.8920    -0.3210 h1         1 1PQ       0.040367
     22 H3           4.1360    -4.1120    -1.5160 h1         1 1PQ       0.040367
     23 H4           0.1670    -2.1720    -0.5160 ha         1 1PQ       0.129000
     24 H5          -1.2620     1.0450     0.4530 hn         1 1PQ       0.507000
     25 H6          -1.9020    -1.8660     0.3070 h1         1 1PQ       0.060700
     26 H7          -1.5410    -0.2520     2.9010 hc         1 1PQ       0.043367
     27 H8          -2.1760    -1.9070     2.7850 hc         1 1PQ       0.043367
     28 H9          -0.4930    -1.5770     2.3450 hc         1 1PQ       0.043367
     29 H10         -4.0520    -1.0920     1.3460 hc         1 1PQ       0.043200
     30 H11         -3.4880     0.5720     1.2720 hc         1 1PQ       0.043200
     31 H12         -3.3650     0.4030    -1.2430 hc         1 1PQ       0.054700
     32 H13         -3.8900    -1.2780    -1.1510 hc         1 1PQ       0.054700
     33 H14         -6.0700    -0.5440    -0.1340 h1         1 1PQ       0.024200
     34 H15         -5.5320     1.1530    -0.2290 h1         1 1PQ       0.024200
     35 H16         -5.9580    -0.6920    -2.4900 hn         1 1PQ       0.391500
     36 H17         -6.9520     0.5010    -2.0490 hn         1 1PQ       0.391500
     37 H19          1.1660     4.2360     1.0490 h4         1 1PQ       0.016100
     38 H20          3.6300     4.0000     0.6820 ha         1 1PQ       0.120000
     39 H21          4.5550     1.7720    -0.0130 ha         1 1PQ       0.116000
     40 H22          4.1560    -0.5510    -0.5700 ha         1 1PQ       0.120000
@<TRIPOS>BOND
     1     1     2 1   
     2     1    20 1   
     3     1    21 1   
     4     1    22 1   
     5     2     3 1   
     6     3     4 ar  
     7     3    19 ar  
     8     4     5 ar  
     9     4    23 1   
    10     5     6 1   
    11     5    13 ar  
    12     6     7 1   
    13     6    24 1   
    14     7     8 1   
    15     7     9 1   
    16     7    25 1   
    17     8    26 1   
    18     8    27 1   
    19     8    28 1   
    20     9    10 1   
    21     9    29 1   
    22     9    30 1   
    23    10    11 1   
    24    10    31 1   
    25    10    32 1   
    26    11    12 1   
    27    11    33 1   
    28    11    34 1   
    29    12    35 1   
    30    12    36 1   
    31    13    14 ar  
    32    13    18 ar  
    33    14    15 ar  
    34    15    16 ar  
    35    15    37 1   
    36    16    17 ar  
    37    16    38 1   
    38    17    18 ar  
    39    17    39 1   
    40    18    19 ar  
    41    19    40 1   
@<TRIPOS>SUBSTRUCTURE
     1 1PQ         1 TEMP              0 ****  ****    0 ROOT
