@<TRIPOS>MOLECULE
1PQ
   40    41     1     0     0
SMALL
bcc


@<TRIPOS>ATOM
      1 C1           3.9970    -2.9990    -0.9900 c3         1 1PQ       0.125700
      2 O1           2.6430    -2.7820    -0.6510 os         1 1PQ      -0.318900
      3 C2           2.2400    -1.5220    -0.4010 ca         1 1PQ       0.206100
      4 C3           0.8740    -1.4110    -0.0540 ca         1 1PQ      -0.276000
      5 C4           0.3030    -0.1860     0.2250 ca         1 1PQ       0.190300
      6 N1          -1.0060    -0.0080     0.5230 nu         1 1PQ      -0.752600
      7 C5          -1.9190    -1.0750     0.8750 c3         1 1PQ       0.234500
      8 C6          -1.6270    -1.6480     2.2610 c3         1 1PQ      -0.123100
      9 C7          -3.3530    -0.5620     0.7850 c3         1 1PQ      -0.084400
     10 C8          -3.7750    -0.1060    -0.6050 c3         1 1PQ      -0.078400
     11 C9          -5.2350     0.3200    -0.6490 c3         1 1PQ       0.148800
     12 N2          -5.6070     0.7720    -1.9820 n8         1 1PQ      -0.882800
     13 C10          1.1420     0.9850     0.1740 ca         1 1PQ       0.318600
     14 N3           0.5780     2.1700     0.4680 nb         1 1PQ      -0.669000
     15 C11          1.3150     3.2510     0.4310 ca         1 1PQ       0.389200
     16 C12          2.6800     3.2330     0.0950 ca         1 1PQ      -0.230300
     17 C13          3.2690     2.0340    -0.2030 ca         1 1PQ      -0.106000
     18 C14          2.5050     0.8470    -0.1710 ca         1 1PQ      -0.060300
     19 C15          3.0590    -0.4200    -0.4630 ca         1 1PQ      -0.287000
     20 H1           4.2770    -2.4740    -1.9070 h1         1 1PQ       0.040367
     21 H2           4.6720    -2.6890    -0.1880 h1         1 1PQ       0.040367
     22 H3           4.1090    -4.0690    -1.1510 h1         1 1PQ       0.040367
     23 H4           0.2850    -2.3180    -0.0170 ha         1 1PQ       0.147000
     24 H5          -1.2420     0.9220     0.8370 hn         1 1PQ       0.451800
     25 H6          -1.8060    -1.8730     0.1340 h1         1 1PQ       0.060700
     26 H7          -1.7670    -0.8850     3.0290 hc         1 1PQ       0.043367
     27 H8          -2.2970    -2.4790     2.4850 hc         1 1PQ       0.043367
     28 H9          -0.6040    -2.0180     2.3370 hc         1 1PQ       0.043367
     29 H10         -4.0150    -1.3660     1.1220 hc         1 1PQ       0.043200
     30 H11         -3.4860     0.2560     1.5030 hc         1 1PQ       0.043200
     31 H12         -3.1510     0.7260    -0.9420 hc         1 1PQ       0.054700
     32 H13         -3.6150    -0.9240    -1.3170 hc         1 1PQ       0.054700
     33 H14         -5.8570    -0.5080    -0.2770 h1         1 1PQ       0.024200
     34 H15         -5.3860     1.1490     0.0470 h1         1 1PQ       0.024200
     35 H16         -5.5670    -0.0130    -2.6220 hn         1 1PQ       0.336300
     36 H17         -6.5740     1.0700    -1.9790 hn         1 1PQ       0.336300
     37 H19          0.8290     4.1890     0.6760 h4         1 1PQ       0.016100
     38 H20          3.2440     4.1550     0.0750 ha         1 1PQ       0.138000
     39 H21          4.3200     1.9830    -0.4620 ha         1 1PQ       0.134000
     40 H22          4.1060    -0.4870    -0.7240 ha         1 1PQ       0.138000
@<TRIPOS>BOND
     1     1     2 1   
     2     1    20 1   
     3     1    21 1   
     4     1    22 1   
     5     2     3 1   
     6     3     4 ar  
     7     3    19 ar  
     8     4     5 ar  
     9     4    23 1   
    10     5     6 1   
    11     5    13 ar  
    12     6     7 1   
    13     6    24 1   
    14     7     8 1   
    15     7     9 1   
    16     7    25 1   
    17     8    26 1   
    18     8    27 1   
    19     8    28 1   
    20     9    10 1   
    21     9    29 1   
    22     9    30 1   
    23    10    11 1   
    24    10    31 1   
    25    10    32 1   
    26    11    12 1   
    27    11    33 1   
    28    11    34 1   
    29    12    35 1   
    30    12    36 1   
    31    13    14 ar  
    32    13    18 ar  
    33    14    15 ar  
    34    15    16 ar  
    35    15    37 1   
    36    16    17 ar  
    37    16    38 1   
    38    17    18 ar  
    39    17    39 1   
    40    18    19 ar  
    41    19    40 1   
@<TRIPOS>SUBSTRUCTURE
     1 1PQ         1 TEMP              0 ****  ****    0 ROOT
