@<TRIPOS>MOLECULE
1PS
   24    24     1     0     0
SMALL
No Charge or Current Charge


@<TRIPOS>ATOM
      1 N1           2.1830    -0.0040     0.5590 na         1 1PS       0.080300
      2 C1           2.8040     1.2060     0.2310 ca         1 1PS      -0.057500
      3 C2           4.0510     1.2240    -0.4240 ca         1 1PS      -0.123500
      4 C3           2.8150    -1.2050     0.2210 ca         1 1PS      -0.006800
      5 C4           4.0620    -1.2060    -0.4340 ca         1 1PS      -0.123500
      6 C5           4.6840     0.0130    -0.7570 ca         1 1PS      -0.005000
      7 C6           0.8680    -0.0120     1.2260 c3         1 1PS       0.020600
      8 C7          -0.3150    -0.0070     0.2320 c3         1 1PS      -0.050400
      9 C8          -1.6890    -0.0160     0.9500 c3         1 1PS      -0.361400
     10 S1          -3.1080    -0.0100    -0.1740 s6         1 1PS       1.311600
     11 O1          -4.2620    -0.0200     0.7350 o          1 1PS      -0.674533
     12 O2          -2.9380    -1.2410    -0.9590 o          1 1PS      -0.674533
     13 O3          -2.9430     1.2340    -0.9390 o          1 1PS      -0.674533
     14 H1           2.2890     2.1300     0.4970 h4         1 1PS       0.188500
     15 H2           4.5230     2.1730    -0.6730 ha         1 1PS       0.168000
     16 H3           2.3090    -2.1370     0.4790 h4         1 1PS       0.188500
     17 H4           4.5430    -2.1480    -0.6900 ha         1 1PS       0.168000
     18 H5           5.6480     0.0200    -1.2640 ha         1 1PS       0.158000
     19 H61          0.7970     0.8660     1.8800 h1         1 1PS       0.086700
     20 H62          0.8010    -0.9010     1.8670 h1         1 1PS       0.086700
     21 H71         -0.2350    -0.8840    -0.4240 hc         1 1PS       0.071200
     22 H72         -0.2390     0.8800    -0.4100 hc         1 1PS       0.071200
     23 H81         -1.7990     0.8720     1.5820 h1         1 1PS       0.076700
     24 H82         -1.7950    -0.9140     1.5680 h1         1 1PS       0.076700
@<TRIPOS>BOND
     1     1     2 1   
     2     1     4 2   
     3     1     7 1   
     4     2     3 ar  
     5     2    14 1   
     6     3     6 ar  
     7     3    15 1   
     8     4     5 ar  
     9     4    16 1   
    10     5     6 ar  
    11     5    17 1   
    12     6    18 1   
    13     7     8 1   
    14     7    19 1   
    15     7    20 1   
    16     8     9 1   
    17     8    21 1   
    18     8    22 1   
    19     9    10 1   
    20     9    23 1   
    21     9    24 1   
    22    10    11 1   
    23    10    12 1   
    24    10    13 1   
@<TRIPOS>SUBSTRUCTURE
     1 1PS         1 TEMP              0 ****  ****    0 ROOT
