@<TRIPOS>MOLECULE
1PS
   24    24     1     0     0
SMALL
bcc


@<TRIPOS>ATOM
      1 N1           2.1860    -0.0010     0.5750 na         1 1PS       0.058900
      2 C1           2.7560     1.1690     0.2580 ca         1 1PS      -0.024800
      3 C2           3.9520     1.2050    -0.4210 ca         1 1PS      -0.141500
      4 C3           2.7560    -1.1650     0.2340 ca         1 1PS      -0.024800
      5 C4           3.9510    -1.1880    -0.4450 ca         1 1PS      -0.141500
      6 C5           4.5610     0.0120    -0.7800 ca         1 1PS      -0.023000
      7 C6           0.8780    -0.0080     1.2530 c3         1 1PS      -0.008700
      8 C7          -0.2560    -0.0070     0.2390 c3         1 1PS      -0.050400
      9 C8          -1.5960    -0.0120     0.9530 c3         1 1PS      -0.250600
     10 S1          -2.9800    -0.0180    -0.2040 s6         1 1PS       1.200800
     11 O1          -4.1890    -0.0250     0.6410 o          1 1PS      -0.674533
     12 O2          -2.8180    -1.2480    -1.0040 o          1 1PS      -0.674533
     13 O3          -2.8320     1.2150    -1.0020 o          1 1PS      -0.674533
     14 H1           2.2350     2.0630     0.5650 h4         1 1PS       0.206500
     15 H2           4.3930     2.1610    -0.6570 ha         1 1PS       0.186000
     16 H3           2.2350    -2.0650     0.5250 h4         1 1PS       0.206500
     17 H4           4.3930    -2.1390    -0.7010 ha         1 1PS       0.186000
     18 H5           5.5020     0.0170    -1.3120 ha         1 1PS       0.176000
     19 H61          0.8390     0.8690     1.8970 h1         1 1PS       0.086700
     20 H62          0.8440    -0.8910     1.8890 h1         1 1PS       0.086700
     21 H71         -0.1740    -0.8850    -0.4040 hc         1 1PS       0.071200
     22 H72         -0.1770     0.8770    -0.3990 hc         1 1PS       0.071200
     23 H81         -1.7060     0.8700     1.5890 h1         1 1PS       0.076700
     24 H82         -1.7000    -0.8950     1.5880 h1         1 1PS       0.076700
@<TRIPOS>BOND
     1     1     2 1   
     2     1     4 2   
     3     1     7 1   
     4     2     3 ar  
     5     2    14 1   
     6     3     6 ar  
     7     3    15 1   
     8     4     5 ar  
     9     4    16 1   
    10     5     6 ar  
    11     5    17 1   
    12     6    18 1   
    13     7     8 1   
    14     7    19 1   
    15     7    20 1   
    16     8     9 1   
    17     8    21 1   
    18     8    22 1   
    19     9    10 1   
    20     9    23 1   
    21     9    24 1   
    22    10    11 1   
    23    10    12 1   
    24    10    13 1   
@<TRIPOS>SUBSTRUCTURE
     1 1PS         1 TEMP              0 ****  ****    0 ROOT
