@<TRIPOS>MOLECULE
1PU
   39    42     1     0     0
SMALL
No Charge or Current Charge


@<TRIPOS>ATOM
      1 C1          -0.4330     0.2660    -2.0430 ca         1 1PU      -0.126300
      2 C2           1.0690     0.4190    -2.2760 c5         1 1PU       0.129000
      3 C3          -1.1260     0.2770    -3.2480 ca         1 1PU      -0.138600
      4 C7          -0.1510     0.3320    -4.3600 c          1 1PU       0.572600
      5 C6           1.8470    -0.8920    -2.0260 c5         1 1PU      -0.091400
      6 C4          -1.1180     0.1730    -0.8170 ca         1 1PU       0.001000
      7 N5           1.1030     0.4420    -3.7520 n          1 1PU      -0.394800
      8 C8          -2.5210     0.1730    -3.3070 ca         1 1PU      -0.058000
      9 C9          -2.5330     0.0750    -0.8580 ca         1 1PU      -0.093000
     10 N10         -0.3580     0.1870     0.3840 ns         1 1PU      -0.179000
     11 C11          2.3170    -0.1760    -4.3140 c5         1 1PU       0.096000
     12 C12          3.0340    -0.6690    -3.0160 c5         1 1PU      -0.099400
     13 O13         -0.3750     0.2140    -5.5570 o          1 1PU      -0.527000
     14 C14         -3.2240     0.0750    -2.0920 ca         1 1PU      -0.101000
     15 C15         -0.7210     0.1100     1.7190 c          1 1PU       0.668100
     16 N16          0.3810     0.1740     2.5410 ns         1 1PU      -0.345900
     17 O17         -1.8720     0.0200     2.1230 o          1 1PU      -0.557100
     18 C18          0.4720     0.0810     3.9340 ca         1 1PU       0.496900
     19 C19          1.4490     0.8030     4.6370 ca         1 1PU      -0.216000
     20 N20         -0.3460    -0.8190     4.5170 nb         1 1PU      -0.676000
     21 C21          1.5580     0.6300     6.0260 ca         1 1PU      -0.044000
     22 C22         -0.2420    -0.9840     5.8550 ca         1 1PU       0.374900
     23 C23          0.6870    -0.2810     6.6420 ca         1 1PU      -0.196000
     24 H2           1.5110     1.3180    -1.8230 h1         1 1PU       0.067700
     25 H61          1.2590    -1.7800    -2.2910 hc         1 1PU       0.061200
     26 H62          2.1710    -1.0020    -0.9850 hc         1 1PU       0.061200
     27 H8          -3.0440     0.1610    -4.2610 ha         1 1PU       0.138000
     28 H9          -3.1180    -0.0020     0.0520 ha         1 1PU       0.138000
     29 H10          0.6390     0.2660     0.2320 hn         1 1PU       0.148000
     30 H111         2.0590    -1.0170    -4.9720 h1         1 1PU       0.059200
     31 H112         2.9250     0.5410    -4.8810 h1         1 1PU       0.059200
     32 H121         3.6220    -1.5790    -3.1850 hc         1 1PU       0.053700
     33 H122         3.7230     0.0940    -2.6350 hc         1 1PU       0.053700
     34 H14         -4.3090    -0.0060    -2.1030 ha         1 1PU       0.122000
     35 H16          1.2660     0.3190     2.0770 hn         1 1PU       0.150000
     36 H19          2.1080     1.4880     4.1120 ha         1 1PU       0.120000
     37 H21          2.2970     1.1820     6.6050 ha         1 1PU       0.120000
     38 H22         -0.9200    -1.7060     6.3100 h4         1 1PU       0.025100
     39 H23          0.7300    -0.4540     7.7140 ha         1 1PU       0.128000
@<TRIPOS>BOND
     1     1     2 1   
     2     1     3 ar  
     3     1     6 ar  
     4     2     5 1   
     5     2     7 1   
     6     2    24 1   
     7     3     4 1   
     8     3     8 ar  
     9     4     7 1   
    10     4    13 2   
    11     5    12 1   
    12     5    25 1   
    13     5    26 1   
    14     6     9 ar  
    15     6    10 1   
    16     7    11 1   
    17     8    14 ar  
    18     8    27 1   
    19     9    14 ar  
    20     9    28 1   
    21    10    15 1   
    22    10    29 1   
    23    11    12 1   
    24    11    30 1   
    25    11    31 1   
    26    12    32 1   
    27    12    33 1   
    28    14    34 1   
    29    15    16 1   
    30    15    17 2   
    31    16    18 1   
    32    16    35 1   
    33    18    19 ar  
    34    18    20 ar  
    35    19    21 ar  
    36    19    36 1   
    37    20    22 ar  
    38    21    23 ar  
    39    21    37 1   
    40    22    23 ar  
    41    22    38 1   
    42    23    39 1   
@<TRIPOS>SUBSTRUCTURE
     1 1PU         1 TEMP              0 ****  ****    0 ROOT
