@<TRIPOS>MOLECULE
1PU
   39    42     1     0     0
SMALL
bcc


@<TRIPOS>ATOM
      1 C1          -0.4110     0.3490    -2.0170 ca         1 1PU      -0.126300
      2 C2           1.0480     0.3330    -2.3420 c5         1 1PU       0.129000
      3 C3          -1.1400     0.1970    -3.1850 ca         1 1PU      -0.138600
      4 C7          -0.1940    -0.0040    -4.3080 c          1 1PU       0.715100
      5 C6           1.9190    -0.8320    -1.8760 c5         1 1PU      -0.091400
      6 C4          -1.0480     0.5110    -0.7940 ca         1 1PU       0.093600
      7 N5           1.0470     0.1680    -3.7890 n          1 1PU      -0.461800
      8 C8          -2.5240     0.1590    -3.1890 ca         1 1PU      -0.076000
      9 C9          -2.4440     0.4900    -0.7870 ca         1 1PU      -0.111000
     10 N10         -0.2780     0.7220     0.3530 ns         1 1PU      -0.505100
     11 C11          2.2500    -0.5020    -4.2640 c5         1 1PU       0.096000
     12 C12          2.9950    -0.8640    -2.9660 c5         1 1PU      -0.099400
     13 O13         -0.4590    -0.3040    -5.4590 o          1 1PU      -0.602500
     14 C14         -3.1630     0.3100    -1.9660 ca         1 1PU      -0.119000
     15 C15         -0.5330     0.1700     1.5830 c          1 1PU       0.802100
     16 N16          0.3830     0.5770     2.5240 ns         1 1PU      -0.579400
     17 O17         -1.4640    -0.5770     1.7980 o          1 1PU      -0.557100
     18 C18          0.4710     0.1550     3.8450 ca         1 1PU       0.562200
     19 C19          1.1060     1.0030     4.7600 ca         1 1PU      -0.299300
     20 N20         -0.0040    -1.0320     4.1780 nb         1 1PU      -0.676000
     21 C21          1.2320     0.5780     6.0670 ca         1 1PU      -0.062000
     22 C22          0.1100    -1.4180     5.4460 ca         1 1PU       0.440200
     23 C23          0.7170    -0.6620     6.4310 ca         1 1PU      -0.279300
     24 H2           1.5220     1.2840    -2.0650 h1         1 1PU       0.067700
     25 H61          1.3330    -1.7540    -1.8710 hc         1 1PU       0.061200
     26 H62          2.3310    -0.6830    -0.8790 hc         1 1PU       0.061200
     27 H8          -3.0850     0.0240    -4.1040 ha         1 1PU       0.156000
     28 H9          -2.9850     0.6280     0.1380 ha         1 1PU       0.156000
     29 H10          0.6050     1.1920     0.2150 hn         1 1PU       0.314500
     30 H111         1.9720    -1.3870    -4.8380 h1         1 1PU       0.059200
     31 H112         2.8450     0.1440    -4.9100 h1         1 1PU       0.059200
     32 H121         3.4920    -1.8300    -3.0390 hc         1 1PU       0.053700
     33 H122         3.7610    -0.1160    -2.7530 hc         1 1PU       0.053700
     34 H14         -4.2440     0.3010    -1.9180 ha         1 1PU       0.140000
     35 H16          0.9630     1.3700     2.2900 hn         1 1PU       0.316500
     36 H19          1.4830     1.9680     4.4480 ha         1 1PU       0.138000
     37 H21          1.7190     1.2110     6.7970 ha         1 1PU       0.138000
     38 H22         -0.3000    -2.3940     5.6820 h4         1 1PU       0.025100
     39 H23          0.7870    -1.0300     7.4450 ha         1 1PU       0.146000
@<TRIPOS>BOND
     1     1     2 1   
     2     1     3 ar  
     3     1     6 ar  
     4     2     5 1   
     5     2     7 1   
     6     2    24 1   
     7     3     4 1   
     8     3     8 ar  
     9     4     7 1   
    10     4    13 2   
    11     5    12 1   
    12     5    25 1   
    13     5    26 1   
    14     6     9 ar  
    15     6    10 1   
    16     7    11 1   
    17     8    14 ar  
    18     8    27 1   
    19     9    14 ar  
    20     9    28 1   
    21    10    15 1   
    22    10    29 1   
    23    11    12 1   
    24    11    30 1   
    25    11    31 1   
    26    12    32 1   
    27    12    33 1   
    28    14    34 1   
    29    15    16 1   
    30    15    17 2   
    31    16    18 1   
    32    16    35 1   
    33    18    19 ar  
    34    18    20 ar  
    35    19    21 ar  
    36    19    36 1   
    37    20    22 ar  
    38    21    23 ar  
    39    21    37 1   
    40    22    23 ar  
    41    22    38 1   
    42    23    39 1   
@<TRIPOS>SUBSTRUCTURE
     1 1PU         1 TEMP              0 ****  ****    0 ROOT
