@<TRIPOS>MOLECULE
1PY
   19    19     1     0     0
SMALL
bcc


@<TRIPOS>ATOM
      1 O1          -1.2930     0.0150     3.1330 o          1 1PY      -0.800300
      2 O2           0.8910    -0.0140     3.6250 o          1 1PY      -0.800300
      3 O            1.4030    -0.0020     0.9580 o          1 1PY      -0.550100
      4 CA           0.2580    -0.0040     1.3390 c          1 1PY       0.428100
      5 CB          -0.9120    -0.0100     0.3790 c3         1 1PY      -0.162100
      6 CG          -0.4960    -0.0150    -1.0600 ca         1 1PY      -0.031300
      7 CD1         -0.2800    -1.2140    -1.7340 ca         1 1PY      -0.125000
      8 CE1          0.1320    -1.2220    -3.0600 ca         1 1PY      -0.136000
      9 CZ           0.3390    -0.0250    -3.7330 ca         1 1PY      -0.155000
     10 CE2          0.1290     1.1770    -3.0700 ca         1 1PY      -0.136000
     11 CD2         -0.2840     1.1790    -1.7440 ca         1 1PY      -0.125000
     12 C           -0.0810    -0.0010     2.8590 c          1 1PY       0.858600
     13 HB1         -1.5350    -0.8770     0.6130 hc         1 1PY       0.072200
     14 HB2         -1.5400     0.8570     0.6060 hc         1 1PY       0.072200
     15 HD1         -0.4450    -2.1540    -1.2200 ha         1 1PY       0.127000
     16 HE1          0.2910    -2.1650    -3.5680 ha         1 1PY       0.112000
     17 HZ           0.6570    -0.0290    -4.7680 ha         1 1PY       0.110000
     18 HE2          0.2850     2.1160    -3.5860 ha         1 1PY       0.112000
     19 HD2         -0.4510     2.1220    -1.2380 ha         1 1PY       0.127000
@<TRIPOS>BOND
     1     1    12 1   
     2     2    12 1   
     3     3     4 2   
     4     4     5 1   
     5     4    12 1   
     6     5     6 1   
     7     5    13 1   
     8     5    14 1   
     9     6     7 ar  
    10     6    11 ar  
    11     7     8 ar  
    12     7    15 1   
    13     8     9 ar  
    14     8    16 1   
    15     9    10 ar  
    16     9    17 1   
    17    10    11 ar  
    18    10    18 1   
    19    11    19 1   
@<TRIPOS>SUBSTRUCTURE
     1 1PY         1 TEMP              0 ****  ****    0 ROOT
