@<TRIPOS>MOLECULE
1PY
   19    19     1     0     0
SMALL
No Charge or Current Charge


@<TRIPOS>ATOM
      1 O1          -0.7890    -1.3480     2.7500 o          1 1PY      -0.695000
      2 O2           1.3550    -1.1070     2.6540 o          1 1PY      -0.695000
      3 O            0.7740     1.5350     1.5100 o          1 1PY      -0.550100
      4 CA           0.0280     0.5540     1.4250 c          1 1PY       0.428100
      5 CB          -1.1200     0.5350     0.3970 c3         1 1PY      -0.162100
      6 CG          -0.5800     0.2370    -0.9960 ca         1 1PY      -0.031300
      7 CD1         -0.4200    -1.0950    -1.4230 ca         1 1PY      -0.107000
      8 CE1          0.0810    -1.3730    -2.7070 ca         1 1PY      -0.118000
      9 CZ           0.4260    -0.3190    -3.5700 ca         1 1PY      -0.137000
     10 CE2          0.2690     1.0120    -3.1490 ca         1 1PY      -0.118000
     11 CD2         -0.2320     1.2890    -1.8650 ca         1 1PY      -0.107000
     12 C            0.2140    -0.7580     2.3550 c          1 1PY       0.648000
     13 HB1         -1.8480    -0.2380     0.6660 hc         1 1PY       0.072200
     14 HB2         -1.6140     1.5130     0.4010 hc         1 1PY       0.072200
     15 HD1         -0.6840    -1.9170    -0.7610 ha         1 1PY       0.109000
     16 HE1          0.2020    -2.4040    -3.0320 ha         1 1PY       0.094000
     17 HZ           0.8140    -0.5340    -4.5630 ha         1 1PY       0.092000
     18 HE2          0.5370     1.8280    -3.8160 ha         1 1PY       0.094000
     19 HD2         -0.3470     2.3230    -1.5460 ha         1 1PY       0.109000
@<TRIPOS>BOND
     1     1    12 1   
     2     2    12 1   
     3     3     4 2   
     4     4     5 1   
     5     4    12 1   
     6     5     6 1   
     7     5    13 1   
     8     5    14 1   
     9     6     7 ar  
    10     6    11 ar  
    11     7     8 ar  
    12     7    15 1   
    13     8     9 ar  
    14     8    16 1   
    15     9    10 ar  
    16     9    17 1   
    17    10    11 ar  
    18    10    18 1   
    19    11    19 1   
@<TRIPOS>SUBSTRUCTURE
     1 1PY         1 TEMP              0 ****  ****    0 ROOT
