@<TRIPOS>MOLECULE
1Q1
   29    30     1     0     0
SMALL
No Charge or Current Charge


@<TRIPOS>ATOM
      1 O1          -4.8920     0.5770     1.3080 oh         1 1Q1      -0.509100
      2 C1          -3.6100     0.4450     0.8440 ca         1 1Q1       0.116100
      3 C2          -2.8470    -0.7060     1.1360 ca         1 1Q1       0.136000
      4 F2          -3.3720    -1.7060     1.8840 f          1 1Q1      -0.162000
      5 C3          -1.5340    -0.8280     0.6520 ca         1 1Q1      -0.083000
      6 C4          -0.9570     0.2010    -0.1280 ca         1 1Q1      -0.132900
      7 C5          -1.7320     1.3450    -0.4220 ca         1 1Q1      -0.067000
      8 C6          -3.0470     1.4660     0.0630 ca         1 1Q1      -0.193000
      9 C7           0.4390     0.0710    -0.6580 ce         1 1Q1       0.357900
     10 N8           1.1400    -1.0100    -0.5490 n2         1 1Q1      -0.261700
     11 O9           2.4560    -0.8070    -1.0020 os         1 1Q1      -0.264000
     12 C10          2.6540     0.6080    -1.1940 c5         1 1Q1       0.135300
     13 C11          1.2160     1.1580    -1.3740 c5         1 1Q1      -0.170700
     14 C12          3.3900     1.1850     0.0370 c3         1 1Q1      -0.205400
     15 C13          4.7630     0.5310     0.2130 c          1 1Q1       0.580100
     16 O13          5.7140     0.8390    -0.4940 o          1 1Q1      -0.506100
     17 C14          4.8990    -0.5050     1.3280 c3         1 1Q1      -0.200100
     18 H1          -5.2490     1.4370     1.0000 ho         1 1Q1       0.470000
     19 H2          -0.9710    -1.7270     0.8920 ha         1 1Q1       0.155000
     20 H3          -1.3220     2.1480    -1.0310 ha         1 1Q1       0.116000
     21 H4          -3.6220     2.3580    -0.1760 ha         1 1Q1       0.119000
     22 H5           3.2700     0.7720    -2.0910 h1         1 1Q1       0.097700
     23 H6           0.9330     1.2100    -2.4310 hc         1 1Q1       0.074200
     24 H7           1.0740     2.1490    -0.9290 hc         1 1Q1       0.074200
     25 H8           3.5340     2.2620    -0.1050 hc         1 1Q1       0.068200
     26 H9           2.7850     1.0080     0.9340 hc         1 1Q1       0.068200
     27 H10          4.1230    -1.2690     1.2060 hc         1 1Q1       0.062033
     28 H11          5.9010    -0.9450     1.3780 hc         1 1Q1       0.062033
     29 H12          4.6170    -0.0390     2.2790 hc         1 1Q1       0.062033
@<TRIPOS>BOND
     1     1     2 1   
     2     1    18 1   
     3     2     3 ar  
     4     2     8 ar  
     5     3     4 1   
     6     3     5 ar  
     7     5     6 ar  
     8     5    19 1   
     9     6     7 ar  
    10     6     9 1   
    11     7     8 ar  
    12     7    20 1   
    13     8    21 1   
    14     9    10 2   
    15     9    13 1   
    16    10    11 1   
    17    11    12 1   
    18    12    13 1   
    19    12    14 1   
    20    12    22 1   
    21    13    23 1   
    22    13    24 1   
    23    14    15 1   
    24    14    25 1   
    25    14    26 1   
    26    15    16 2   
    27    15    17 1   
    28    17    27 1   
    29    17    28 1   
    30    17    29 1   
@<TRIPOS>SUBSTRUCTURE
     1 1Q1         1 TEMP              0 ****  ****    0 ROOT
