@<TRIPOS>MOLECULE
1Q1
   29    30     1     0     0
SMALL
abcg2


@<TRIPOS>ATOM
      1 O1          -5.0100     0.5240     1.0780 oh         1 1Q1      -0.509100
      2 C1          -3.7390     0.4720     0.6580 ca         1 1Q1       0.116100
      3 C2          -3.1130    -0.7770     0.6270 ca         1 1Q1       0.136000
      4 F2          -3.8260    -1.8450     1.0130 f          1 1Q1      -0.162000
      5 C3          -1.8140    -0.9370     0.2220 ca         1 1Q1      -0.083000
      6 C4          -1.0710     0.1790    -0.1810 ca         1 1Q1      -0.132900
      7 C5          -1.6830     1.4280    -0.1610 ca         1 1Q1      -0.067000
      8 C6          -2.9990     1.5730     0.2520 ca         1 1Q1      -0.193000
      9 C7           0.3170     0.0430    -0.6100 ce         1 1Q1       0.357900
     10 N8           0.9070    -1.0850    -0.6370 n2         1 1Q1      -0.261700
     11 O9           2.1910    -0.9440    -1.0870 os         1 1Q1      -0.264000
     12 C10          2.5340     0.4580    -1.1340 c5         1 1Q1       0.135300
     13 C11          1.1850     1.1670    -1.0910 c5         1 1Q1      -0.170700
     14 C12          3.4010     0.7970     0.0620 c3         1 1Q1      -0.205400
     15 C13          4.7290     0.0800     0.1030 c          1 1Q1       0.580100
     16 O13          5.1840    -0.4810    -0.8670 o          1 1Q1      -0.506100
     17 C14          5.4450     0.1280     1.4220 c3         1 1Q1      -0.200100
     18 H1          -5.3210     1.4370     1.0860 ho         1 1Q1       0.470000
     19 H2          -1.3780    -1.9280     0.2190 ha         1 1Q1       0.155000
     20 H3          -1.1390     2.3120    -0.4660 ha         1 1Q1       0.116000
     21 H4          -3.4520     2.5580     0.2640 ha         1 1Q1       0.119000
     22 H5           3.0700     0.6310    -2.0670 h1         1 1Q1       0.097700
     23 H6           0.8490     1.5140    -2.0710 hc         1 1Q1       0.074200
     24 H7           1.1810     2.0270    -0.4200 hc         1 1Q1       0.074200
     25 H8           3.6220     1.8710     0.0540 hc         1 1Q1       0.068200
     26 H9           2.8600     0.6240     0.9980 hc         1 1Q1       0.068200
     27 H10          4.9330    -0.5320     2.1270 hc         1 1Q1       0.062033
     28 H11          6.4800    -0.1950     1.3300 hc         1 1Q1       0.062033
     29 H12          5.4080     1.1300     1.8500 hc         1 1Q1       0.062033
@<TRIPOS>BOND
     1     1     2 1   
     2     1    18 1   
     3     2     3 ar  
     4     2     8 ar  
     5     3     4 1   
     6     3     5 ar  
     7     5     6 ar  
     8     5    19 1   
     9     6     7 ar  
    10     6     9 1   
    11     7     8 ar  
    12     7    20 1   
    13     8    21 1   
    14     9    10 2   
    15     9    13 1   
    16    10    11 1   
    17    11    12 1   
    18    12    13 1   
    19    12    14 1   
    20    12    22 1   
    21    13    23 1   
    22    13    24 1   
    23    14    15 1   
    24    14    25 1   
    25    14    26 1   
    26    15    16 2   
    27    15    17 1   
    28    17    27 1   
    29    17    28 1   
    30    17    29 1   
@<TRIPOS>SUBSTRUCTURE
     1 1Q1         1 TEMP              0 ****  ****    0 ROOT
