@<TRIPOS>MOLECULE
1Q2
   31    31     1     0     0
SMALL
No Charge or Current Charge


@<TRIPOS>ATOM
      1 C1           4.0670     0.6920    -0.2530 ca         1 1Q2       0.126100
      2 O1           5.3630     1.0240    -0.5340 oh         1 1Q2      -0.524100
      3 C2           3.6710    -0.6550    -0.1580 ca         1 1Q2       0.061000
      4 F2           4.5760    -1.6450    -0.3440 f          1 1Q2      -0.186000
      5 C3           2.3360    -0.9850     0.1320 ca         1 1Q2      -0.062000
      6 C4           1.3660     0.0300     0.3170 ca         1 1Q2      -0.159900
      7 C5           1.7830     1.3810     0.2430 ca         1 1Q2      -0.074000
      8 C6           3.1210     1.7060    -0.0480 ca         1 1Q2      -0.141000
      9 C7          -0.0520    -0.3230     0.6670 ce         1 1Q2       0.474900
     10 N8          -0.3010    -1.4660     1.2100 n2         1 1Q2      -0.747100
     11 O9          -3.0720    -0.5700     1.1820 oh         1 1Q2      -0.647000
     12 C10         -2.5330     0.0190    -0.0020 c3         1 1Q2       0.175300
     13 C11         -1.1670     0.6600     0.3340 c3         1 1Q2      -0.212700
     14 C12         -3.5460     1.0430    -0.5490 c3         1 1Q2      -0.221400
     15 C13         -4.8250     0.3560    -1.0380 c          1 1Q2       0.576100
     16 O13         -4.8580    -0.2530    -2.1000 o          1 1Q2      -0.503100
     17 C14         -6.0680     0.4970    -0.1600 c3         1 1Q2      -0.200100
     18 HO1          5.8720     0.1900    -0.6400 ho         1 1Q2       0.481000
     19 H3           2.0600    -2.0350     0.2030 ha         1 1Q2       0.158000
     20 H5           1.0780     2.1900     0.4180 ha         1 1Q2       0.114000
     21 H6           3.4240     2.7490    -0.1070 ha         1 1Q2       0.133000
     22 HN8         -1.3210    -1.5110     1.3750 hn         1 1Q2       0.407400
     23 H10         -2.3710    -0.7500    -0.7750 h1         1 1Q2       0.096700
     24 H11         -1.2970     1.3600     1.1690 hc         1 1Q2       0.061200
     25 H11A        -0.8630     1.2670    -0.5260 hc         1 1Q2       0.061200
     26 H12         -3.7850     1.7660     0.2410 hc         1 1Q2       0.064200
     27 H12A        -3.0910     1.5610    -1.4010 hc         1 1Q2       0.064200
     28 H14         -5.8360     0.1410     0.8500 hc         1 1Q2       0.061367
     29 H14A        -6.2640     1.5610     0.0090 hc         1 1Q2       0.061367
     30 H14B        -6.9430    -0.0130    -0.5800 hc         1 1Q2       0.061367
     31 HO9         -3.2630     0.1600     1.8100 ho         1 1Q2       0.440000
@<TRIPOS>BOND
     1     1     2 1   
     2     1     3 ar  
     3     1     8 ar  
     4     2    18 1   
     5     3     4 1   
     6     3     5 ar  
     7     5     6 ar  
     8     5    19 1   
     9     6     7 ar  
    10     6     9 1   
    11     7     8 ar  
    12     7    20 1   
    13     8    21 1   
    14     9    10 2   
    15     9    13 1   
    16    10    22 1   
    17    11    12 1   
    18    11    31 1   
    19    12    13 1   
    20    12    14 1   
    21    12    23 1   
    22    13    24 1   
    23    13    25 1   
    24    14    15 1   
    25    14    26 1   
    26    14    27 1   
    27    15    16 2   
    28    15    17 1   
    29    17    28 1   
    30    17    29 1   
    31    17    30 1   
@<TRIPOS>SUBSTRUCTURE
     1 1Q2         1 TEMP              0 ****  ****    0 ROOT
