@<TRIPOS>MOLECULE
1Q2
   31    31     1     0     0
SMALL
abcg2


@<TRIPOS>ATOM
      1 C1           4.0000     0.9380    -0.0080 ca         1 1Q2       0.126100
      2 O1           5.2380     1.4500    -0.0460 oh         1 1Q2      -0.524100
      3 C2           3.7430    -0.4320     0.0610 ca         1 1Q2       0.061000
      4 F2           4.8020    -1.2650     0.0900 f          1 1Q2      -0.186000
      5 C3           2.4730    -0.9440     0.1000 ca         1 1Q2      -0.062000
      6 C4           1.3700    -0.0860     0.0700 ca         1 1Q2      -0.159900
      7 C5           1.6130     1.2850     0.0040 ca         1 1Q2      -0.074000
      8 C6           2.9050     1.7900    -0.0340 ca         1 1Q2      -0.141000
      9 C7          -0.0010    -0.6620     0.1200 ce         1 1Q2       0.474900
     10 N8          -0.1060    -1.9250     0.1900 n2         1 1Q2      -0.747100
     11 O9          -2.8680    -1.1090     1.0730 oh         1 1Q2      -0.647000
     12 C10         -2.5480    -0.2820    -0.0270 c3         1 1Q2       0.175300
     13 C11         -1.1500     0.3200     0.0780 c3         1 1Q2      -0.212700
     14 C12         -3.5810     0.8240    -0.1910 c3         1 1Q2      -0.221400
     15 C13         -4.9810     0.3300    -0.4690 c          1 1Q2       0.576100
     16 O13         -5.1960    -0.7610    -0.9470 o          1 1Q2      -0.503100
     17 C14         -6.0840     1.2930    -0.1340 c3         1 1Q2      -0.200100
     18 HO1          5.9070     0.7570    -0.0280 ho         1 1Q2       0.481000
     19 H3           2.3280    -2.0150     0.1540 ha         1 1Q2       0.158000
     20 H5           0.7990     1.9950    -0.0180 ha         1 1Q2       0.114000
     21 H6           3.0690     2.8590    -0.0840 ha         1 1Q2       0.133000
     22 HN8         -1.0750    -2.2210     0.2570 hn         1 1Q2       0.407400
     23 H10         -2.5870    -0.9320    -0.9060 h1         1 1Q2       0.096700
     24 H11         -1.0930     0.9660     0.9630 hc         1 1Q2       0.061200
     25 H11A        -1.0000     0.9880    -0.7740 hc         1 1Q2       0.061200
     26 H12         -3.5860     1.4810     0.6850 hc         1 1Q2       0.064200
     27 H12A        -3.3150     1.4740    -1.0330 hc         1 1Q2       0.064200
     28 H14         -6.1850     1.3490     0.9520 hc         1 1Q2       0.061367
     29 H14A        -5.8380     2.3000    -0.4750 hc         1 1Q2       0.061367
     30 H14B        -7.0350     0.9830    -0.5610 hc         1 1Q2       0.061367
     31 HO9         -2.7590    -0.5980     1.8830 ho         1 1Q2       0.440000
@<TRIPOS>BOND
     1     1     2 1   
     2     1     3 ar  
     3     1     8 ar  
     4     2    18 1   
     5     3     4 1   
     6     3     5 ar  
     7     5     6 ar  
     8     5    19 1   
     9     6     7 ar  
    10     6     9 1   
    11     7     8 ar  
    12     7    20 1   
    13     8    21 1   
    14     9    10 2   
    15     9    13 1   
    16    10    22 1   
    17    11    12 1   
    18    11    31 1   
    19    12    13 1   
    20    12    14 1   
    21    12    23 1   
    22    13    24 1   
    23    13    25 1   
    24    14    15 1   
    25    14    26 1   
    26    14    27 1   
    27    15    16 2   
    28    15    17 1   
    29    17    28 1   
    30    17    29 1   
    31    17    30 1   
@<TRIPOS>SUBSTRUCTURE
     1 1Q2         1 TEMP              0 ****  ****    0 ROOT
