@<TRIPOS>MOLECULE
1Q3
   39    42     1     0     0
SMALL
bcc


@<TRIPOS>ATOM
      1 C1           0.9100    -2.6270     0.4270 c6         1 1Q3      -0.130400
      2 C2           0.2100    -3.9300     0.5120 c2         1 1Q3       0.501200
      3 N3          -1.0420    -4.1440     0.4180 ne         1 1Q3      -0.632100
      4 C5          -1.9140    -3.0690     0.2080 c          1 1Q3       0.585000
      5 O6          -3.0960    -3.2820     0.0950 o          1 1Q3      -0.443100
      6 C7          -1.3660    -1.6810     0.1280 ca         1 1Q3       0.403800
      7 C8          -0.0130    -1.4830     0.2340 ca         1 1Q3      -0.377900
      8 C9           0.4220    -0.1350     0.1310 ca         1 1Q3       0.735200
      9 N10         -0.4540     0.8400    -0.0510 nb         1 1Q3      -0.789000
     10 C11         -1.7460     0.5210    -0.1370 ca         1 1Q3       0.814500
     11 N12         -2.2510    -0.6970    -0.0560 nb         1 1Q3      -0.701000
     12 C13         -2.6720     1.6240    -0.3340 cc         1 1Q3      -0.355800
     13 C14         -4.0480     1.5590    -0.4490 cd         1 1Q3      -0.067300
     14 N15         -4.4670     2.8160    -0.6140 na         1 1Q3      -0.004600
     15 N17         -3.4780     3.7080    -0.6180 nd         1 1Q3      -0.531800
     16 C18         -2.3820     3.0000    -0.4490 cc         1 1Q3       0.354200
     17 N19          1.7310     0.1650     0.1990 nu         1 1Q3      -0.873900
     18 C20          2.2680     1.5060     0.1430 c5         1 1Q3       0.246500
     19 C21          2.8020     1.9830     1.4930 c5         1 1Q3      -0.105400
     20 C22          4.1520     1.2670     1.6530 c5         1 1Q3      -0.084400
     21 C23          4.6460     0.9560     0.2220 c5         1 1Q3      -0.077400
     22 C24          3.5530     1.5320    -0.7060 c5         1 1Q3      -0.030600
     23 C25          3.4240     0.8320    -1.9710 c1         1 1Q3       0.218700
     24 N26          3.3260     0.2710    -2.9720 n1         1 1Q3      -0.361800
     25 H1           1.5130    -2.5270     1.3400 hc         1 1Q3       0.074700
     26 H2           1.6440    -2.7040    -0.3860 hc         1 1Q3       0.074700
     27 H3           0.8470    -4.7960     0.6740 h4         1 1Q3       0.024800
     28 H4          -4.7280     0.7240    -0.4240 h4         1 1Q3       0.194000
     29 H5          -5.4200     3.1240    -0.7290 hn         1 1Q3       0.324700
     30 H6          -1.4150     3.4780    -0.4120 h4         1 1Q3       0.046100
     31 H7           2.3640    -0.5750     0.4620 hn         1 1Q3       0.437800
     32 H8           1.5000     2.1580    -0.2660 h1         1 1Q3       0.109700
     33 H9           2.9450     3.0640     1.4480 hc         1 1Q3       0.063200
     34 H10          2.1030     1.7790     2.3030 hc         1 1Q3       0.063200
     35 H11          4.8640     1.8810     2.2020 hc         1 1Q3       0.048700
     36 H12          4.0340     0.3430     2.2200 hc         1 1Q3       0.048700
     37 H13          5.6110     1.4060    -0.0010 hc         1 1Q3       0.054200
     38 H14          4.7580    -0.1190     0.0690 hc         1 1Q3       0.054200
     39 H15          3.7810     2.5760    -0.9320 hc         1 1Q3       0.088700
@<TRIPOS>BOND
     1     1     2 1   
     2     1     7 1   
     3     1    25 1   
     4     1    26 1   
     5     2     3 2   
     6     2    27 1   
     7     3     4 1   
     8     4     5 2   
     9     4     6 1   
    10     6     7 ar  
    11     6    11 ar  
    12     7     8 ar  
    13     8     9 ar  
    14     8    17 1   
    15     9    10 ar  
    16    10    11 ar  
    17    10    12 1   
    18    12    13 2   
    19    12    16 1   
    20    13    14 1   
    21    13    28 1   
    22    14    15 1   
    23    14    29 1   
    24    15    16 2   
    25    16    30 1   
    26    17    18 1   
    27    17    31 1   
    28    18    19 1   
    29    18    22 1   
    30    18    32 1   
    31    19    20 1   
    32    19    33 1   
    33    19    34 1   
    34    20    21 1   
    35    20    35 1   
    36    20    36 1   
    37    21    22 1   
    38    21    37 1   
    39    21    38 1   
    40    22    23 1   
    41    22    39 1   
    42    23    24 3   
@<TRIPOS>SUBSTRUCTURE
     1 1Q3         1 TEMP              0 ****  ****    0 ROOT
