@<TRIPOS>MOLECULE
1Q3
   39    42     1     0     0
SMALL
No Charge or Current Charge


@<TRIPOS>ATOM
      1 C1           0.9580    -2.5470     0.3300 c6         1 1Q3      -0.130400
      2 C2           0.2710    -3.8160     0.8080 c2         1 1Q3       0.501200
      3 N3          -1.0080    -3.9580     1.0150 ne         1 1Q3      -0.632100
      4 C5          -1.9190    -2.9100     0.8080 c          1 1Q3       0.585000
      5 O6          -3.1150    -3.0740     0.9990 o          1 1Q3      -0.443100
      6 C7          -1.3740    -1.5650     0.3400 ca         1 1Q3       0.075500
      7 C8           0.0010    -1.3730     0.1080 ca         1 1Q3      -0.247300
      8 C9           0.4210    -0.1000    -0.3170 ca         1 1Q3       0.406900
      9 N10         -0.4550     0.9000    -0.5120 nb         1 1Q3      -0.263000
     10 C11         -1.7540     0.6380    -0.2690 ca         1 1Q3       0.288500
     11 N12         -2.2470    -0.5490     0.1490 nb         1 1Q3      -0.175000
     12 C13         -2.6930     1.7390    -0.4780 cc         1 1Q3      -0.290500
     13 C14         -4.0380     1.6260    -0.2660 cd         1 1Q3      -0.100000
     14 N15         -4.5430     2.8950    -0.5830 na         1 1Q3      -0.004200
     15 N17         -3.5420     3.7870    -0.9850 nd         1 1Q3      -0.531800
     16 C18         -2.4510     3.0510    -0.9070 cc         1 1Q3       0.288900
     17 N19          1.7710     0.1470    -0.5730 nu         1 1Q3      -0.929100
     18 C20          2.2770     1.4380     0.0050 c5         1 1Q3       0.246500
     19 C21          2.5200     1.1160     1.5270 c5         1 1Q3      -0.105400
     20 C22          4.0630     1.2260     1.7230 c5         1 1Q3      -0.084400
     21 C23          4.6060     0.7860     0.3410 c5         1 1Q3      -0.077400
     22 C24          3.7160     1.6640    -0.5830 c5         1 1Q3      -0.030600
     23 C25          3.8840     1.3990    -2.0310 c1         1 1Q3       0.307900
     24 N26          4.0590     1.2150    -3.1690 n1         1 1Q3      -0.451000
     25 H1           1.7240    -2.2740     1.0680 hc         1 1Q3       0.074700
     26 H2           1.4900    -2.7770    -0.6030 hc         1 1Q3       0.074700
     27 H3           0.9140    -4.6730     0.9900 h4         1 1Q3       0.024800
     28 H4          -4.6580     0.7990     0.0660 h4         1 1Q3       0.176000
     29 H5          -5.5220     3.1770    -0.5390 hn         1 1Q3       0.375000
     30 H6          -1.4990     3.4960    -1.1670 h4         1 1Q3       0.046100
     31 H7           2.3510    -0.6850    -0.4930 hn         1 1Q3       0.493000
     32 H8           1.6300     2.3130    -0.1690 h1         1 1Q3       0.109700
     33 H9           1.9930     1.8310     2.1690 hc         1 1Q3       0.063200
     34 H10          2.1640     0.1240     1.8280 hc         1 1Q3       0.063200
     35 H11          4.3640     2.2540     1.9620 hc         1 1Q3       0.048700
     36 H12          4.4250     0.5880     2.5370 hc         1 1Q3       0.048700
     37 H13          5.6740     1.0060     0.2270 hc         1 1Q3       0.054200
     38 H14          4.4710    -0.2890     0.1680 hc         1 1Q3       0.054200
     39 H15          3.9880     2.7180    -0.4510 hc         1 1Q3       0.088700
@<TRIPOS>BOND
     1     1     2 1   
     2     1     7 1   
     3     1    25 1   
     4     1    26 1   
     5     2     3 2   
     6     2    27 1   
     7     3     4 1   
     8     4     5 2   
     9     4     6 1   
    10     6     7 ar  
    11     6    11 ar  
    12     7     8 ar  
    13     8     9 ar  
    14     8    17 1   
    15     9    10 ar  
    16    10    11 ar  
    17    10    12 1   
    18    12    13 2   
    19    12    16 1   
    20    13    14 1   
    21    13    28 1   
    22    14    15 1   
    23    14    29 1   
    24    15    16 2   
    25    16    30 1   
    26    17    18 1   
    27    17    31 1   
    28    18    19 1   
    29    18    22 1   
    30    18    32 1   
    31    19    20 1   
    32    19    33 1   
    33    19    34 1   
    34    20    21 1   
    35    20    35 1   
    36    20    36 1   
    37    21    22 1   
    38    21    37 1   
    39    21    38 1   
    40    22    23 1   
    41    22    39 1   
    42    23    24 3   
@<TRIPOS>SUBSTRUCTURE
     1 1Q3         1 TEMP              0 ****  ****    0 ROOT
