@<TRIPOS>MOLECULE
1Q4
   34    36     1     0     0
SMALL
bcc


@<TRIPOS>ATOM
      1 C1           1.6360     1.7720    -0.1720 cc         1 1Q4      -0.196200
      2 C2           2.9100     2.1880    -0.3070 cd         1 1Q4      -0.000400
      3 N3           3.9490     1.3070    -0.2610 ns         1 1Q4      -0.452100
      4 C5           3.8370    -0.0440    -0.0750 c          1 1Q4       0.601000
      5 O6           4.8160    -0.7700    -0.0380 o          1 1Q4      -0.581500
      6 C7           2.4500    -0.5200     0.0720 ca         1 1Q4       0.392800
      7 C8           1.3920     0.3770     0.0200 ca         1 1Q4      -0.284400
      8 C9           0.0850    -0.2040     0.1720 ca         1 1Q4       0.722200
      9 N10         -0.0470    -1.5120     0.3470 nb         1 1Q4      -0.792000
     10 C11          1.0580    -2.2510     0.3820 ca         1 1Q4       0.679900
     11 N12          2.2950    -1.8440     0.2540 nb         1 1Q4      -0.689000
     12 N13         -1.0110     0.5580     0.1540 nu         1 1Q4      -0.867900
     13 C14         -2.3700     0.0530     0.2460 c6         1 1Q4       0.237500
     14 C15         -3.2730     1.1350     0.8310 c6         1 1Q4      -0.090400
     15 C16         -4.7120     0.6410     0.9430 c6         1 1Q4      -0.071400
     16 C17         -5.2410     0.1540    -0.4020 c6         1 1Q4      -0.078400
     17 C18         -4.3330    -0.9190    -0.9930 c6         1 1Q4      -0.071400
     18 C19         -2.8940    -0.4250    -1.1090 c6         1 1Q4      -0.090400
     19 H1           0.8460     2.5050    -0.2110 ha         1 1Q4       0.140000
     20 H3           3.1790     3.2220    -0.4560 h4         1 1Q4       0.149000
     21 H4           0.9050    -3.3160     0.5300 h5         1 1Q4       0.049100
     22 H5          -0.9100     1.5390    -0.0490 hn         1 1Q4       0.436800
     23 H6          -2.3580    -0.7970     0.9330 h1         1 1Q4       0.083700
     24 H7          -2.8960     1.4420     1.8090 hc         1 1Q4       0.046200
     25 H8          -3.2460     2.0200     0.1830 hc         1 1Q4       0.046200
     26 H9          -4.7580    -0.1770     1.6690 hc         1 1Q4       0.043950
     27 H10         -5.3440     1.4400     1.3360 hc         1 1Q4       0.043950
     28 H11         -6.2590    -0.2280    -0.2920 hc         1 1Q4       0.041200
     29 H12         -5.2980     1.0000    -1.0960 hc         1 1Q4       0.041200
     30 H13         -4.3590    -1.8090    -0.3540 hc         1 1Q4       0.043950
     31 H14         -4.6990    -1.2320    -1.9730 hc         1 1Q4       0.043950
     32 H15         -2.8440     0.4060    -1.8210 hc         1 1Q4       0.046200
     33 H16         -2.2480    -1.2170    -1.4950 hc         1 1Q4       0.046200
     34 H2           4.8860     1.6710    -0.3690 hn         1 1Q4       0.328500
@<TRIPOS>BOND
     1     1     2 2   
     2     1     7 1   
     3     1    19 1   
     4     2     3 1   
     5     2    20 1   
     6     3     4 1   
     7     3    34 1   
     8     4     5 2   
     9     4     6 1   
    10     6     7 ar  
    11     6    11 ar  
    12     7     8 ar  
    13     8     9 ar  
    14     8    12 1   
    15     9    10 ar  
    16    10    11 ar  
    17    10    21 1   
    18    12    13 1   
    19    12    22 1   
    20    13    14 1   
    21    13    18 1   
    22    13    23 1   
    23    14    15 1   
    24    14    24 1   
    25    14    25 1   
    26    15    16 1   
    27    15    26 1   
    28    15    27 1   
    29    16    17 1   
    30    16    28 1   
    31    16    29 1   
    32    17    18 1   
    33    17    30 1   
    34    17    31 1   
    35    18    32 1   
    36    18    33 1   
@<TRIPOS>SUBSTRUCTURE
     1 1Q4         1 TEMP              0 ****  ****    0 ROOT
