@<TRIPOS>MOLECULE
1Q4
   34    36     1     0     0
SMALL
No Charge or Current Charge


@<TRIPOS>ATOM
      1 C1           1.5980     1.7610    -0.1480 cc         1 1Q4      -0.246200
      2 C2           2.8750     2.2200    -0.4140 cd         1 1Q4      -0.050400
      3 N3           3.9460     1.3390    -0.4640 ns         1 1Q4      -0.385100
      4 C5           3.8820    -0.0220    -0.2690 c          1 1Q4       0.458500
      5 O6           4.8880    -0.7150    -0.3340 o          1 1Q4      -0.506000
      6 C7           2.5050    -0.5640     0.0240 ca         1 1Q4       0.064500
      7 C8           1.4000     0.3170     0.0810 ca         1 1Q4      -0.153800
      8 C9           0.1370    -0.2610     0.3590 ca         1 1Q4       0.393900
      9 N10         -0.0040    -1.5850     0.5630 nb         1 1Q4      -0.266000
     10 C11          1.1120    -2.3340     0.4860 ca         1 1Q4       0.153900
     11 N12          2.3580    -1.8930     0.2280 nb         1 1Q4      -0.163000
     12 N13         -1.0200     0.5160     0.4410 nu         1 1Q4      -0.923100
     13 C14         -2.4050     0.0120     0.4210 c6         1 1Q4       0.237500
     14 C15         -3.3570     1.1210     0.9380 c6         1 1Q4      -0.090400
     15 C16         -4.8370     0.6640     0.8780 c6         1 1Q4      -0.071400
     16 C17         -5.2290     0.2270    -0.5550 c6         1 1Q4      -0.078400
     17 C18         -4.2770    -0.8720    -1.0870 c6         1 1Q4      -0.071400
     18 C19         -2.7980    -0.4140    -1.0200 c6         1 1Q4      -0.090400
     19 H1           0.7820     2.4790    -0.1180 ha         1 1Q4       0.190000
     20 H3           3.1300     3.2620    -0.5970 h4         1 1Q4       0.199000
     21 H4           0.9960    -3.4040     0.6500 h5         1 1Q4       0.049100
     22 H5          -0.8790     1.5140     0.3040 hn         1 1Q4       0.492000
     23 H6          -2.5100    -0.8580     1.0910 h1         1 1Q4       0.083700
     24 H7          -3.0970     1.3850     1.9720 hc         1 1Q4       0.046200
     25 H8          -3.2330     2.0340     0.3390 hc         1 1Q4       0.046200
     26 H9          -4.9960    -0.1690     1.5760 hc         1 1Q4       0.043950
     27 H10         -5.4930     1.4800     1.2110 hc         1 1Q4       0.043950
     28 H11         -6.2650    -0.1400    -0.5630 hc         1 1Q4       0.041200
     29 H12         -5.2020     1.0960    -1.2280 hc         1 1Q4       0.041200
     30 H13         -4.4060    -1.7910    -0.4970 hc         1 1Q4       0.043950
     31 H14         -4.5420    -1.1270    -2.1220 hc         1 1Q4       0.043950
     32 H15         -2.6430     0.4250    -1.7130 hc         1 1Q4       0.046200
     33 H16         -2.1480    -1.2280    -1.3650 hc         1 1Q4       0.046200
     34 H2           4.8780     1.6900    -0.6600 hn         1 1Q4       0.328500
@<TRIPOS>BOND
     1     1     2 2   
     2     1     7 1   
     3     1    19 1   
     4     2     3 1   
     5     2    20 1   
     6     3     4 1   
     7     3    34 1   
     8     4     5 2   
     9     4     6 1   
    10     6     7 ar  
    11     6    11 ar  
    12     7     8 ar  
    13     8     9 ar  
    14     8    12 1   
    15     9    10 ar  
    16    10    11 ar  
    17    10    21 1   
    18    12    13 1   
    19    12    22 1   
    20    13    14 1   
    21    13    18 1   
    22    13    23 1   
    23    14    15 1   
    24    14    24 1   
    25    14    25 1   
    26    15    16 1   
    27    15    26 1   
    28    15    27 1   
    29    16    17 1   
    30    16    28 1   
    31    16    29 1   
    32    17    18 1   
    33    17    30 1   
    34    17    31 1   
    35    18    32 1   
    36    18    33 1   
@<TRIPOS>SUBSTRUCTURE
     1 1Q4         1 TEMP              0 ****  ****    0 ROOT
