@<TRIPOS>MOLECULE
1Q5
   54    55     1     0     0
SMALL
No Charge or Current Charge


@<TRIPOS>ATOM
      1 C18         -0.2380     2.3530    -2.5130 c3         1 1Q5      -0.144400
      2 C20         -4.6140     0.4400     0.1290 c3         1 1Q5       0.240500
      3 C1           2.5540    -0.7960     0.2010 ca         1 1Q5       0.114100
      4 C17         -1.2780    -1.3860     1.8050 c3         1 1Q5      -0.022800
      5 C16         -1.0430    -0.3830     0.6660 ca         1 1Q5      -0.256300
      6 C15         -2.0680     0.4650     0.2300 ca         1 1Q5       0.409000
      7 C14         -1.8230     1.3640    -0.8020 ca         1 1Q5      -0.284000
      8 C13         -0.5600     1.3900    -1.3880 ca         1 1Q5       0.424300
      9 C11          0.2040    -0.2760     0.0200 ca         1 1Q5       0.626300
     10 C6           3.2670    -1.4990    -0.7940 ca         1 1Q5      -0.062300
     11 C8           2.5800    -2.5710    -1.6320 c3         1 1Q5      -0.043800
     12 C5           4.6240    -1.1940    -1.0170 ca         1 1Q5      -0.110500
     13 C4           5.2710    -0.2070    -0.2520 ca         1 1Q5      -0.071300
     14 C3           4.5540     0.4810     0.7440 ca         1 1Q5      -0.110500
     15 C2           3.1970     0.1910     0.9830 ca         1 1Q5      -0.062300
     16 C24         -4.0980    -1.6040    -1.4080 c3         1 1Q5      -0.088600
     17 C23         -5.0020    -0.9960    -0.3120 c3         1 1Q5      -0.092400
     18 C21         -5.6840     1.0610     1.0610 c3         1 1Q5      -0.092400
     19 C22         -5.4460     2.5520     1.3930 c3         1 1Q5      -0.088600
     20 N12          0.4370     0.5880    -0.9890 nb         1 1Q5      -0.779000
     21 O10          1.2290    -1.1000     0.4260 os         1 1Q5      -0.380400
     22 H1           0.4510     1.9050    -3.2390 hc         1 1Q5       0.049700
     23 H2          -1.1430     2.6470    -3.0560 hc         1 1Q5       0.049700
     24 H3           0.2290     3.2640    -2.1210 hc         1 1Q5       0.049700
     25 H4          -4.5600     1.0730    -0.7690 h1         1 1Q5       0.061700
     26 H5          -2.1630    -2.0050     1.6090 hc         1 1Q5       0.037367
     27 H6          -0.4400    -2.0770     1.9500 hc         1 1Q5       0.037367
     28 H7          -1.4370    -0.8650     2.7570 hc         1 1Q5       0.037367
     29 H8          -2.5930     2.0460    -1.1430 ha         1 1Q5       0.121000
     30 H9           6.8360     0.9130    -1.2520 hc         1 1Q5       0.040700
     31 H10          7.2330     0.4570     0.4140 hc         1 1Q5       0.040700
     32 H11          7.2830    -0.7590    -0.8690 hc         1 1Q5       0.040700
     33 H12          1.7600    -2.1430    -2.2200 hc         1 1Q5       0.044700
     34 H13          3.2740    -3.0500    -2.3320 hc         1 1Q5       0.044700
     35 H14          2.1600    -3.3580    -0.9940 hc         1 1Q5       0.044700
     36 H15          1.8490     0.2570     2.6940 hc         1 1Q5       0.044700
     37 H16          3.1340     1.4670     2.7540 hc         1 1Q5       0.044700
     38 H17          1.7700     1.6880     1.6500 hc         1 1Q5       0.044700
     39 H18          5.1790    -1.7250    -1.7870 ha         1 1Q5       0.110000
     40 H19          5.0560     1.2440     1.3360 ha         1 1Q5       0.110000
     41 H20         -4.5080    -2.5620    -1.7500 hc         1 1Q5       0.037367
     42 H21         -4.0310    -0.9330    -2.2730 hc         1 1Q5       0.037367
     43 H22         -3.0860    -1.7890    -1.0310 hc         1 1Q5       0.037367
     44 H23         -5.0130    -1.6610     0.5600 hc         1 1Q5       0.043200
     45 H24         -6.0280    -0.9760    -0.7000 hc         1 1Q5       0.043200
     46 H25         -6.6660     0.9750     0.5790 hc         1 1Q5       0.043200
     47 H26         -5.7430     0.4860     1.9940 hc         1 1Q5       0.043200
     48 H27         -6.2640     2.9400     2.0120 hc         1 1Q5       0.037367
     49 H28         -4.5080     2.6890     1.9440 hc         1 1Q5       0.037367
     50 H29         -5.3980     3.1500     0.4750 hc         1 1Q5       0.037367
     51 H30         -3.3230    -0.1010     1.7030 hn         1 1Q5       0.488000
     52 N19         -3.3220     0.4230     0.8310 nu         1 1Q5      -0.975200
     53 C7           6.7350     0.1180    -0.5030 c3         1 1Q5      -0.043800
     54 C9           2.4480     0.9410     2.0800 c3         1 1Q5      -0.043800
@<TRIPOS>BOND
     1     1     8 1   
     2     1    22 1   
     3     1    23 1   
     4     1    24 1   
     5     2    17 1   
     6     2    18 1   
     7     2    25 1   
     8     2    52 1   
     9     3    10 ar  
    10     3    15 ar  
    11     3    21 1   
    12     4     5 1   
    13     4    26 1   
    14     4    27 1   
    15     4    28 1   
    16     5     6 ar  
    17     5     9 ar  
    18     6     7 ar  
    19     6    52 1   
    20     7     8 ar  
    21     7    29 1   
    22     8    20 ar  
    23     9    20 ar  
    24     9    21 1   
    25    10    11 1   
    26    10    12 ar  
    27    11    33 1   
    28    11    34 1   
    29    11    35 1   
    30    12    13 ar  
    31    12    39 1   
    32    13    14 ar  
    33    13    53 1   
    34    14    15 ar  
    35    14    40 1   
    36    15    54 1   
    37    16    17 1   
    38    16    41 1   
    39    16    42 1   
    40    16    43 1   
    41    17    44 1   
    42    17    45 1   
    43    18    19 1   
    44    18    46 1   
    45    18    47 1   
    46    19    48 1   
    47    19    49 1   
    48    19    50 1   
    49    30    53 1   
    50    31    53 1   
    51    32    53 1   
    52    36    54 1   
    53    37    54 1   
    54    38    54 1   
    55    51    52 1   
@<TRIPOS>SUBSTRUCTURE
     1 1Q5         1 TEMP              0 ****  ****    0 ROOT
