@<TRIPOS>MOLECULE
1Q5
   54    55     1     0     0
SMALL
abcg2


@<TRIPOS>ATOM
      1 C18         -0.2130     2.4220    -2.1740 c3         1 1Q5      -0.144400
      2 C20         -4.6070     0.2140    -0.0510 c3         1 1Q5       0.240500
      3 C1           2.5890    -0.5560     0.3750 ca         1 1Q5       0.114100
      4 C17         -1.2160    -1.7360     1.6630 c3         1 1Q5      -0.022800
      5 C16         -1.0030    -0.6410     0.6610 ca         1 1Q5      -0.256300
      6 C15         -2.1010     0.0470     0.1040 ca         1 1Q5       0.409000
      7 C14         -1.8350     1.0620    -0.8370 ca         1 1Q5      -0.284000
      8 C13         -0.5320     1.3440    -1.1830 ca         1 1Q5       0.424300
      9 C11          0.2560    -0.2480     0.2230 ca         1 1Q5       0.626300
     10 C6           3.1850    -1.2490    -0.6730 ca         1 1Q5      -0.062300
     11 C8           2.4210    -2.2840    -1.4440 c3         1 1Q5      -0.043800
     12 C5           4.5070    -0.9470    -0.9840 ca         1 1Q5      -0.110500
     13 C4           5.2230     0.0210    -0.2870 ca         1 1Q5      -0.071300
     14 C3           4.5850     0.6910     0.7520 ca         1 1Q5      -0.110500
     15 C2           3.2640     0.4210     1.0980 ca         1 1Q5      -0.062300
     16 C24         -5.0280    -1.9480    -1.3360 c3         1 1Q5      -0.088600
     17 C23         -5.5530    -0.9600    -0.3050 c3         1 1Q5      -0.092400
     18 C21         -5.2460     1.2540     0.8710 c3         1 1Q5      -0.092400
     19 C22         -4.3790     2.4800     1.1160 c3         1 1Q5      -0.088600
     20 N12          0.5110     0.6940    -0.6590 nb         1 1Q5      -0.779000
     21 O10          1.3150    -0.9050     0.7600 os         1 1Q5      -0.380400
     22 H1           0.3640     2.0220    -3.0090 hc         1 1Q5       0.049700
     23 H2          -1.1160     2.8820    -2.5730 hc         1 1Q5       0.049700
     24 H3           0.3920     3.2040    -1.7120 hc         1 1Q5       0.049700
     25 H4          -4.3990     0.6840    -1.0160 h1         1 1Q5       0.061700
     26 H5          -1.8390    -2.5380     1.2570 hc         1 1Q5       0.037367
     27 H6          -0.2820    -2.1890     1.9810 hc         1 1Q5       0.037367
     28 H7          -1.7160    -1.3700     2.5650 hc         1 1Q5       0.037367
     29 H8          -2.6340     1.6400    -1.2800 ha         1 1Q5       0.121000
     30 H9           6.6700     1.1090    -1.4500 hc         1 1Q5       0.040700
     31 H10          7.1990     0.7430     0.1850 hc         1 1Q5       0.040700
     32 H11          7.1680    -0.5240    -1.0400 hc         1 1Q5       0.040700
     33 H12          1.5950    -1.8340    -2.0000 hc         1 1Q5       0.044700
     34 H13          3.0670    -2.7860    -2.1630 hc         1 1Q5       0.044700
     35 H14          1.9900    -3.0450    -0.7920 hc         1 1Q5       0.044700
     36 H15          2.1430     0.4850     2.9430 hc         1 1Q5       0.044700
     37 H16          3.2840     1.8120     2.7300 hc         1 1Q5       0.044700
     38 H17          1.7730     1.7870     1.8260 hc         1 1Q5       0.044700
     39 H18          4.9880    -1.4850    -1.7940 ha         1 1Q5       0.110000
     40 H19          5.1280     1.4460     1.3110 ha         1 1Q5       0.110000
     41 H20         -5.7450    -2.7520    -1.5080 hc         1 1Q5       0.037367
     42 H21         -4.8470    -1.4540    -2.2930 hc         1 1Q5       0.037367
     43 H22         -4.0910    -2.4050    -1.0180 hc         1 1Q5       0.037367
     44 H23         -5.7510    -1.4700     0.6430 hc         1 1Q5       0.043200
     45 H24         -6.5130    -0.5570    -0.6380 hc         1 1Q5       0.043200
     46 H25         -6.1970     1.5600     0.4270 hc         1 1Q5       0.043200
     47 H26         -5.4930     0.7760     1.8250 hc         1 1Q5       0.043200
     48 H27         -4.8890     3.1960     1.7620 hc         1 1Q5       0.037367
     49 H28         -3.4370     2.2160     1.5980 hc         1 1Q5       0.037367
     50 H29         -4.1400     2.9910     0.1810 hc         1 1Q5       0.037367
     51 H30         -3.4460    -0.9950     1.1920 hn         1 1Q5       0.488000
     52 N19         -3.3550    -0.2860     0.4830 nu         1 1Q5      -0.975200
     53 C7           6.6390     0.3510    -0.6640 c3         1 1Q5      -0.043800
     54 C9           2.5820     1.1620     2.2090 c3         1 1Q5      -0.043800
@<TRIPOS>BOND
     1     1     8 1   
     2     1    22 1   
     3     1    23 1   
     4     1    24 1   
     5     2    17 1   
     6     2    18 1   
     7     2    25 1   
     8     2    52 1   
     9     3    10 ar  
    10     3    15 ar  
    11     3    21 1   
    12     4     5 1   
    13     4    26 1   
    14     4    27 1   
    15     4    28 1   
    16     5     6 ar  
    17     5     9 ar  
    18     6     7 ar  
    19     6    52 1   
    20     7     8 ar  
    21     7    29 1   
    22     8    20 ar  
    23     9    20 ar  
    24     9    21 1   
    25    10    11 1   
    26    10    12 ar  
    27    11    33 1   
    28    11    34 1   
    29    11    35 1   
    30    12    13 ar  
    31    12    39 1   
    32    13    14 ar  
    33    13    53 1   
    34    14    15 ar  
    35    14    40 1   
    36    15    54 1   
    37    16    17 1   
    38    16    41 1   
    39    16    42 1   
    40    16    43 1   
    41    17    44 1   
    42    17    45 1   
    43    18    19 1   
    44    18    46 1   
    45    18    47 1   
    46    19    48 1   
    47    19    49 1   
    48    19    50 1   
    49    30    53 1   
    50    31    53 1   
    51    32    53 1   
    52    36    54 1   
    53    37    54 1   
    54    38    54 1   
    55    51    52 1   
@<TRIPOS>SUBSTRUCTURE
     1 1Q5         1 TEMP              0 ****  ****    0 ROOT
