@<TRIPOS>MOLECULE
1Q6
   49    50     1     0     0
SMALL
No Charge or Current Charge


@<TRIPOS>ATOM
      1 N22          3.4430    -3.4050     1.0300 nv         1 1Q6      -1.056900
      2 C22          3.6300    -2.3150     0.2850 ca         1 1Q6       0.601900
      3 C23          4.4610    -2.2790    -0.8370 ca         1 1Q6      -0.231000
      4 C24          4.5750    -1.0730    -1.5440 ca         1 1Q6      -0.004300
      5 C27          5.4600    -0.9580    -2.7730 c3         1 1Q6      -0.053800
      6 C25          3.8310     0.0230    -1.0750 ca         1 1Q6      -0.190000
      7 N21          2.9200    -1.2970     0.7440 nb         1 1Q6      -0.761000
      8 C26          3.0150    -0.1250     0.0660 ca         1 1Q6       0.394300
      9 C28          2.2030     1.0640     0.5980 c3         1 1Q6       0.109300
     10 O29          1.3580     1.6070    -0.4460 os         1 1Q6      -0.456000
     11 C11          0.6350     2.8290    -0.1240 c3         1 1Q6       0.182300
     12 C12         -0.0330     3.3530    -1.4310 c3         1 1Q6       0.156800
     13 N13          0.9410     3.6760    -2.5090 n8         1 1Q6      -0.998200
     14 C10         -0.4020     2.5800     1.0130 c3         1 1Q6       0.128600
     15 O09         -1.3740     1.6050     0.5840 os         1 1Q6      -0.447000
     16 C08         -2.3730     1.2730     1.5720 c3         1 1Q6       0.104300
     17 C06         -3.3220     0.1960     1.0320 ca         1 1Q6       0.391300
     18 C05         -2.8090    -1.0020     0.4950 ca         1 1Q6      -0.187000
     19 N01         -4.6550     0.4440     1.1120 nb         1 1Q6      -0.760000
     20 C02         -5.4690    -0.4910     0.6480 ca         1 1Q6       0.596900
     21 N02         -6.7450    -0.1290     0.7870 nv         1 1Q6      -1.052900
     22 C03         -5.0660    -1.7100     0.0970 ca         1 1Q6      -0.229000
     23 C04         -3.6930    -1.9830     0.0150 ca         1 1Q6      -0.005300
     24 C07         -3.1800    -3.2860    -0.5770 c3         1 1Q6      -0.053800
     25 H1           3.6410    -4.3020     0.6020 hn         1 1Q6       0.468000
     26 H2           2.6520    -3.3650     1.6600 hn         1 1Q6       0.468000
     27 H3           5.0070    -3.1640    -1.1480 ha         1 1Q6       0.118000
     28 H4           4.8900    -1.1670    -3.6860 hc         1 1Q6       0.045700
     29 H5           5.8840     0.0500    -2.8660 hc         1 1Q6       0.045700
     30 H6           6.2970    -1.6650    -2.7310 hc         1 1Q6       0.045700
     31 H7           3.8780     0.9810    -1.5840 ha         1 1Q6       0.135000
     32 H8           1.6010     0.7310     1.4530 h1         1 1Q6       0.044700
     33 H9           2.9050     1.8270     0.9590 h1         1 1Q6       0.044700
     34 H10          1.3370     3.5970     0.2260 h1         1 1Q6       0.052700
     35 H11         -0.7270     2.5880    -1.8080 h1         1 1Q6       0.042700
     36 H12         -0.6180     4.2560    -1.2050 h1         1 1Q6       0.042700
     37 H13          1.4950     2.8300    -2.6930 hn         1 1Q6       0.397500
     38 H14          0.4310     3.8290    -3.3870 hn         1 1Q6       0.397500
     39 H16          0.1100     2.2480     1.9250 h1         1 1Q6       0.028700
     40 H17         -0.9000     3.5300     1.2470 h1         1 1Q6       0.028700
     41 H18         -1.8960     0.8900     2.4830 h1         1 1Q6       0.041700
     42 H19         -2.9470     2.1680     1.8470 h1         1 1Q6       0.041700
     43 H20         -1.7350    -1.1570     0.4530 ha         1 1Q6       0.143000
     44 H21         -6.8960     0.6570     1.4070 hn         1 1Q6       0.466000
     45 H22         -7.4440    -0.8630     0.8030 hn         1 1Q6       0.466000
     46 H23         -5.8020    -2.4240    -0.2600 ha         1 1Q6       0.118000
     47 H24         -2.9880    -3.1770    -1.6510 hc         1 1Q6       0.046700
     48 H25         -2.2440    -3.6000    -0.0990 hc         1 1Q6       0.046700
     49 H26         -3.9060    -4.0970    -0.4470 hc         1 1Q6       0.046700
@<TRIPOS>BOND
     1     1     2 1   
     2     1    25 1   
     3     1    26 1   
     4     2     3 ar  
     5     2     7 ar  
     6     3     4 ar  
     7     3    27 1   
     8     4     5 1   
     9     4     6 ar  
    10     5    28 1   
    11     5    29 1   
    12     5    30 1   
    13     6     8 ar  
    14     6    31 1   
    15     7     8 ar  
    16     8     9 1   
    17     9    10 1   
    18     9    32 1   
    19     9    33 1   
    20    10    11 1   
    21    11    12 1   
    22    11    14 1   
    23    11    34 1   
    24    12    13 1   
    25    12    35 1   
    26    12    36 1   
    27    13    37 1   
    28    13    38 1   
    29    14    15 1   
    30    14    39 1   
    31    14    40 1   
    32    15    16 1   
    33    16    17 1   
    34    16    41 1   
    35    16    42 1   
    36    17    18 ar  
    37    17    19 ar  
    38    18    23 ar  
    39    18    43 1   
    40    19    20 ar  
    41    20    21 1   
    42    20    22 ar  
    43    21    44 1   
    44    21    45 1   
    45    22    23 ar  
    46    22    46 1   
    47    23    24 1   
    48    24    47 1   
    49    24    48 1   
    50    24    49 1   
@<TRIPOS>SUBSTRUCTURE
     1 1Q6         1 TEMP              0 ****  ****    0 ROOT
