@<TRIPOS>MOLECULE
1Q6
   49    50     1     0     0
SMALL
bcc


@<TRIPOS>ATOM
      1 N22          5.0390    -2.4640     2.0160 nv         1 1Q6      -0.946500
      2 C22          4.4350    -1.8230     0.9740 ca         1 1Q6       0.667200
      3 C23          4.8010    -2.1120    -0.3540 ca         1 1Q6      -0.314300
      4 C24          4.2060    -1.4090    -1.3790 ca         1 1Q6      -0.004300
      5 C27          4.5530    -1.6800    -2.8110 c3         1 1Q6      -0.053800
      6 C25          3.2590    -0.4280    -1.0550 ca         1 1Q6      -0.273300
      7 N21          3.5290    -0.9010     1.2720 nb         1 1Q6      -0.761000
      8 C26          2.9600    -0.2180     0.2760 ca         1 1Q6       0.459600
      9 C28          1.9640     0.8110     0.7380 c3         1 1Q6       0.086100
     10 O29          1.3220     1.4040    -0.3510 os         1 1Q6      -0.409600
     11 C11          0.6820     2.6340    -0.0870 c3         1 1Q6       0.159100
     12 C12          0.2560     3.2080    -1.4280 c3         1 1Q6       0.156800
     13 N13          1.4150     3.4720    -2.2660 n8         1 1Q6      -0.887800
     14 C10         -0.4760     2.4970     0.8880 c3         1 1Q6       0.105400
     15 O09         -1.4020     1.5620     0.4000 os         1 1Q6      -0.400600
     16 C08         -2.5010     1.3920     1.2440 c3         1 1Q6       0.081100
     17 C06         -3.4000     0.3000     0.7340 ca         1 1Q6       0.456600
     18 C05         -3.0820    -0.4740    -0.3630 ca         1 1Q6      -0.270300
     19 N01         -4.5160     0.1400     1.4480 nb         1 1Q6      -0.760000
     20 C02         -5.3690    -0.8100     1.0890 ca         1 1Q6       0.662200
     21 N02         -6.5230    -0.9190     1.8120 nv         1 1Q6      -0.942500
     22 C03         -5.1330    -1.6490    -0.0160 ca         1 1Q6      -0.312300
     23 C04         -3.9770    -1.4810    -0.7490 ca         1 1Q6      -0.005300
     24 C07         -3.6770    -2.3470    -1.9330 c3         1 1Q6      -0.053800
     25 H1           5.4840    -3.3460     1.8260 hn         1 1Q6       0.412800
     26 H2           4.5580    -2.4280     2.9000 hn         1 1Q6       0.412800
     27 H3           5.5390    -2.8780    -0.5580 ha         1 1Q6       0.136000
     28 H4           3.6750    -2.0130    -3.3670 hc         1 1Q6       0.045700
     29 H5           4.9150    -0.7750    -3.3010 hc         1 1Q6       0.045700
     30 H6           5.3220    -2.4450    -2.9040 hc         1 1Q6       0.045700
     31 H7           2.7770     0.1440    -1.8350 ha         1 1Q6       0.153000
     32 H8           1.2520     0.3190     1.4140 h1         1 1Q6       0.044700
     33 H9           2.4980     1.5600     1.3420 h1         1 1Q6       0.044700
     34 H10          1.3950     3.3360     0.3750 h1         1 1Q6       0.052700
     35 H11         -0.4860     2.5430    -1.8890 h1         1 1Q6       0.042700
     36 H12         -0.2500     4.1570    -1.2360 h1         1 1Q6       0.042700
     37 H13          1.8280     2.5940    -2.5540 hn         1 1Q6       0.342300
     38 H14          1.1130     3.9230    -3.1200 hn         1 1Q6       0.342300
     39 H16         -0.1070     2.1950     1.8790 h1         1 1Q6       0.028700
     40 H17         -0.9360     3.4870     1.0200 h1         1 1Q6       0.028700
     41 H18         -2.1800     1.1330     2.2640 h1         1 1Q6       0.041700
     42 H19         -3.0840     2.3210     1.3340 h1         1 1Q6       0.041700
     43 H20         -2.1620    -0.3180    -0.9080 ha         1 1Q6       0.161000
     44 H21         -6.5070    -0.4990     2.7270 hn         1 1Q6       0.410800
     45 H22         -7.0070    -1.8010     1.7780 hn         1 1Q6       0.410800
     46 H23         -5.8530    -2.4140    -0.2810 ha         1 1Q6       0.136000
     47 H24         -3.6270    -1.7500    -2.8450 hc         1 1Q6       0.046700
     48 H25         -2.7090    -2.8370    -1.8220 hc         1 1Q6       0.046700
     49 H26         -4.4350    -3.1150    -2.0740 hc         1 1Q6       0.046700
@<TRIPOS>BOND
     1     1     2 1   
     2     1    25 1   
     3     1    26 1   
     4     2     3 ar  
     5     2     7 ar  
     6     3     4 ar  
     7     3    27 1   
     8     4     5 1   
     9     4     6 ar  
    10     5    28 1   
    11     5    29 1   
    12     5    30 1   
    13     6     8 ar  
    14     6    31 1   
    15     7     8 ar  
    16     8     9 1   
    17     9    10 1   
    18     9    32 1   
    19     9    33 1   
    20    10    11 1   
    21    11    12 1   
    22    11    14 1   
    23    11    34 1   
    24    12    13 1   
    25    12    35 1   
    26    12    36 1   
    27    13    37 1   
    28    13    38 1   
    29    14    15 1   
    30    14    39 1   
    31    14    40 1   
    32    15    16 1   
    33    16    17 1   
    34    16    41 1   
    35    16    42 1   
    36    17    18 ar  
    37    17    19 ar  
    38    18    23 ar  
    39    18    43 1   
    40    19    20 ar  
    41    20    21 1   
    42    20    22 ar  
    43    21    44 1   
    44    21    45 1   
    45    22    23 ar  
    46    22    46 1   
    47    23    24 1   
    48    24    47 1   
    49    24    48 1   
    50    24    49 1   
@<TRIPOS>SUBSTRUCTURE
     1 1Q6         1 TEMP              0 ****  ****    0 ROOT
