@<TRIPOS>MOLECULE
1Q7
   49    50     1     0     0
SMALL
abcg2


@<TRIPOS>ATOM
      1 N22          4.6970    -1.8700    -2.0540 nv         1 1Q7      -1.058900
      2 C22          3.6630    -1.4310    -1.2770 ca         1 1Q7       0.597900
      3 C23          2.6460    -2.3120    -0.8720 ca         1 1Q7      -0.231000
      4 C24          1.6430    -1.8460    -0.0470 ca         1 1Q7      -0.000300
      5 C27          0.5390    -2.7500     0.4090 c3         1 1Q7      -0.055800
      6 C25          1.6830    -0.5040     0.3570 ca         1 1Q7      -0.193000
      7 N21          3.6920    -0.1610    -0.8910 nb         1 1Q7      -0.762000
      8 C26          2.7220     0.2860    -0.0920 ca         1 1Q7       0.355300
      9 C15          2.9010     1.7250     0.3330 c3         1 1Q7       0.105300
     10 O14          1.7980     2.2860     0.9910 os         1 1Q7      -0.452000
     11 C11          0.9920     3.1580     0.2190 c3         1 1Q7       0.173300
     12 C12          0.1360     3.9520     1.1920 c3         1 1Q7       0.156800
     13 N13          0.9660     4.7960     2.0380 n8         1 1Q7      -0.999200
     14 C10          0.1730     2.4320    -0.8320 c3         1 1Q7       0.133600
     15 O09         -0.7730     1.6030    -0.2140 os         1 1Q7      -0.454000
     16 C08         -1.3980     0.7080    -1.0830 c3         1 1Q7       0.106300
     17 C06         -2.1770    -0.3200    -0.3100 ca         1 1Q7       0.391300
     18 N01         -2.8310    -1.1940    -1.0770 nb         1 1Q7      -0.760000
     19 C02         -3.5140    -2.1680    -0.4890 ca         1 1Q7       0.597900
     20 N02         -4.1350    -3.0730    -1.3030 nv         1 1Q7      -1.055900
     21 C03         -3.5670    -2.3060     0.9090 ca         1 1Q7      -0.232000
     22 C05         -2.1850    -0.3660     1.0690 ca         1 1Q7      -0.192000
     23 C04         -2.8980    -1.3940     1.6970 ca         1 1Q7      -0.006300
     24 C07         -2.9050    -1.5050     3.1910 c3         1 1Q7      -0.053800
     25 H1           4.5520    -2.7050    -2.5970 hn         1 1Q7       0.467500
     26 H2           5.2350    -1.1600    -2.5240 hn         1 1Q7       0.467500
     27 H3           2.6560    -3.3430    -1.2050 ha         1 1Q7       0.118000
     28 H4           0.4240    -2.7120     1.4920 hc         1 1Q7       0.048033
     29 H5          -0.4170    -2.4410    -0.0150 hc         1 1Q7       0.048033
     30 H6           0.7190    -3.7840     0.1190 hc         1 1Q7       0.048033
     31 H7           0.9120    -0.0950     0.9950 ha         1 1Q7       0.144000
     32 H8           3.7540     1.7630     1.0210 h1         1 1Q7       0.061200
     33 H9           3.1950     2.3150    -0.5450 h1         1 1Q7       0.061200
     34 H10          1.6330     3.8690    -0.3230 h1         1 1Q7       0.053700
     35 H11         -0.5260     4.5950     0.6060 h1         1 1Q7       0.043200
     36 H12         -0.5100     3.2650     1.7530 h1         1 1Q7       0.043200
     37 H13          0.3690     5.3530     2.6350 hn         1 1Q7       0.398000
     38 H14          1.5040     4.2120     2.6640 hn         1 1Q7       0.398000
     39 H16         -0.3120     3.1790    -1.4770 h1         1 1Q7       0.031700
     40 H17          0.8420     1.8460    -1.4800 h1         1 1Q7       0.031700
     41 H18         -2.0750     1.2260    -1.7790 h1         1 1Q7       0.044700
     42 H19         -0.6590     0.1810    -1.7050 h1         1 1Q7       0.044700
     43 H20         -4.2890    -2.7780    -2.2530 hn         1 1Q7       0.467500
     44 H21         -4.8950    -3.6040    -0.9120 hn         1 1Q7       0.467500
     45 H22         -4.1250    -3.1220     1.3540 ha         1 1Q7       0.119000
     46 H23         -1.6420     0.3630     1.6550 ha         1 1Q7       0.141000
     47 H24         -1.9080    -1.7550     3.5590 hc         1 1Q7       0.047033
     48 H25         -3.1880    -0.5600     3.6550 hc         1 1Q7       0.047033
     49 H26         -3.5920    -2.2750     3.5370 hc         1 1Q7       0.047033
@<TRIPOS>BOND
     1     1     2 1   
     2     1    25 1   
     3     1    26 1   
     4     2     3 ar  
     5     2     7 ar  
     6     3     4 ar  
     7     3    27 1   
     8     4     5 1   
     9     4     6 ar  
    10     5    28 1   
    11     5    29 1   
    12     5    30 1   
    13     6     8 ar  
    14     6    31 1   
    15     7     8 ar  
    16     8     9 1   
    17     9    10 1   
    18     9    32 1   
    19     9    33 1   
    20    10    11 1   
    21    11    12 1   
    22    11    14 1   
    23    11    34 1   
    24    12    13 1   
    25    12    35 1   
    26    12    36 1   
    27    13    37 1   
    28    13    38 1   
    29    14    15 1   
    30    14    39 1   
    31    14    40 1   
    32    15    16 1   
    33    16    17 1   
    34    16    41 1   
    35    16    42 1   
    36    17    18 ar  
    37    17    22 ar  
    38    18    19 ar  
    39    19    20 1   
    40    19    21 ar  
    41    20    43 1   
    42    20    44 1   
    43    21    23 ar  
    44    21    45 1   
    45    22    23 ar  
    46    22    46 1   
    47    23    24 1   
    48    24    47 1   
    49    24    48 1   
    50    24    49 1   
@<TRIPOS>SUBSTRUCTURE
     1 1Q7         1 TEMP              0 ****  ****    0 ROOT
