@<TRIPOS>MOLECULE
1Q7
   49    50     1     0     0
SMALL
No Charge or Current Charge


@<TRIPOS>ATOM
      1 N22          3.3780    -1.5460    -2.6400 nv         1 1Q7      -1.058900
      2 C22          2.8710    -1.2890    -1.4340 ca         1 1Q7       0.597900
      3 C23          2.1170    -2.2070    -0.7010 ca         1 1Q7      -0.231000
      4 C24          1.6380    -1.8210     0.5590 ca         1 1Q7      -0.000300
      5 C27          0.8300    -2.7830     1.4150 c3         1 1Q7      -0.055800
      6 C25          1.9430    -0.5200     0.9950 ca         1 1Q7      -0.193000
      7 N21          3.1720    -0.0610    -1.0430 nb         1 1Q7      -0.762000
      8 C26          2.7010     0.3330     0.1670 ca         1 1Q7       0.355300
      9 C15          3.0560     1.7570     0.6250 c3         1 1Q7       0.105300
     10 O14          1.8930     2.4710     1.1210 os         1 1Q7      -0.452000
     11 C11          1.1440     3.2760     0.1610 c3         1 1Q7       0.173300
     12 C12          0.0750     4.0890     0.9500 c3         1 1Q7       0.156800
     13 N13          0.6600     5.0090     1.9640 n8         1 1Q7      -0.999200
     14 C10          0.5080     2.3900    -0.9510 c3         1 1Q7       0.133600
     15 O09         -0.4100     1.4510    -0.3590 os         1 1Q7      -0.454000
     16 C08         -0.9020     0.4370    -1.2620 c3         1 1Q7       0.106300
     17 C06         -1.8550    -0.5360    -0.5510 ca         1 1Q7       0.391300
     18 N01         -2.7180    -1.2200    -1.3450 nb         1 1Q7      -0.760000
     19 C02         -3.5320    -2.0790    -0.7520 ca         1 1Q7       0.597900
     20 N02         -4.3290    -2.6750    -1.6400 nv         1 1Q7      -1.055900
     21 C03         -3.5750    -2.3350     0.6190 ca         1 1Q7      -0.232000
     22 C05         -1.8160    -0.7220     0.8480 ca         1 1Q7      -0.192000
     23 C04         -2.6910    -1.6380     1.4550 ca         1 1Q7      -0.006300
     24 C07         -2.6760    -1.8760     2.9550 c3         1 1Q7      -0.053800
     25 H1           2.9490    -2.2880    -3.1800 hn         1 1Q7       0.467500
     26 H2           3.7030    -0.7360    -3.1520 hn         1 1Q7       0.467500
     27 H3           1.9170    -3.1980    -1.0950 ha         1 1Q7       0.118000
     28 H4           0.4500    -2.2980     2.3210 hc         1 1Q7       0.048033
     29 H5          -0.0300    -3.1750     0.8600 hc         1 1Q7       0.048033
     30 H6           1.4440    -3.6360     1.7270 hc         1 1Q7       0.048033
     31 H7           1.5970    -0.1640     1.9610 ha         1 1Q7       0.144000
     32 H8           3.7980     1.6650     1.4280 h1         1 1Q7       0.061200
     33 H9           3.5390     2.3090    -0.1930 h1         1 1Q7       0.061200
     34 H10          1.8160     3.9930    -0.3280 h1         1 1Q7       0.053700
     35 H11         -0.5290     4.6790     0.2470 h1         1 1Q7       0.043200
     36 H12         -0.5970     3.3870     1.4650 h1         1 1Q7       0.043200
     37 H13         -0.0880     5.3520     2.5770 hn         1 1Q7       0.398000
     38 H14          1.2510     4.4470     2.5900 hn         1 1Q7       0.398000
     39 H16         -0.0230     3.0390    -1.6600 h1         1 1Q7       0.031700
     40 H17          1.2960     1.8770    -1.5150 h1         1 1Q7       0.031700
     41 H18         -1.4300     0.9050    -2.1030 h1         1 1Q7       0.044700
     42 H19         -0.0650    -0.1410    -1.6750 h1         1 1Q7       0.044700
     43 H20         -4.3540    -2.2310    -2.5490 hn         1 1Q7       0.467500
     44 H21         -5.1990    -3.0690    -1.3020 hn         1 1Q7       0.467500
     45 H22         -4.2740    -3.0590     1.0240 ha         1 1Q7       0.119000
     46 H23         -1.1060    -0.1630     1.4510 ha         1 1Q7       0.141000
     47 H24         -2.1650    -2.8160     3.1950 hc         1 1Q7       0.047033
     48 H25         -2.1580    -1.0690     3.4870 hc         1 1Q7       0.047033
     49 H26         -3.6950    -1.9360     3.3560 hc         1 1Q7       0.047033
@<TRIPOS>BOND
     1     1     2 1   
     2     1    25 1   
     3     1    26 1   
     4     2     3 ar  
     5     2     7 ar  
     6     3     4 ar  
     7     3    27 1   
     8     4     5 1   
     9     4     6 ar  
    10     5    28 1   
    11     5    29 1   
    12     5    30 1   
    13     6     8 ar  
    14     6    31 1   
    15     7     8 ar  
    16     8     9 1   
    17     9    10 1   
    18     9    32 1   
    19     9    33 1   
    20    10    11 1   
    21    11    12 1   
    22    11    14 1   
    23    11    34 1   
    24    12    13 1   
    25    12    35 1   
    26    12    36 1   
    27    13    37 1   
    28    13    38 1   
    29    14    15 1   
    30    14    39 1   
    31    14    40 1   
    32    15    16 1   
    33    16    17 1   
    34    16    41 1   
    35    16    42 1   
    36    17    18 ar  
    37    17    22 ar  
    38    18    19 ar  
    39    19    20 1   
    40    19    21 ar  
    41    20    43 1   
    42    20    44 1   
    43    21    23 ar  
    44    21    45 1   
    45    22    23 ar  
    46    22    46 1   
    47    23    24 1   
    48    24    47 1   
    49    24    48 1   
    50    24    49 1   
@<TRIPOS>SUBSTRUCTURE
     1 1Q7         1 TEMP              0 ****  ****    0 ROOT
