@<TRIPOS>MOLECULE
1Q8
   20    20     1     0     0
SMALL
bcc


@<TRIPOS>ATOM
      1 O6           1.1130    -1.5740     0.6310 o          1 1Q8      -0.586100
      2 C2           0.7650    -0.4380     0.3480 c          1 1Q8       0.686700
      3 N5           1.6380     0.5810     0.1980 ns         1 1Q8      -0.569900
      4 C9           3.0500     0.4190     0.3490 c3         1 1Q8       0.310800
      5 O11          3.5980    -0.0640    -0.8530 oh         1 1Q8      -0.616800
      6 C1          -0.6780    -0.0970     0.1580 ca         1 1Q8      -0.151600
      7 C4          -1.5500    -1.1150    -0.2220 ca         1 1Q8      -0.089500
      8 C8          -2.9000    -0.8530    -0.3980 ca         1 1Q8      -0.138000
      9 C10         -3.3960     0.4250    -0.1760 ca         1 1Q8      -0.107000
     10 C7          -2.5370     1.4400     0.2200 ca         1 1Q8      -0.138000
     11 C3          -1.1830     1.1820     0.3850 ca         1 1Q8      -0.089500
     12 H1           1.3110     1.4520    -0.1850 hn         1 1Q8       0.318500
     13 H2           3.4590     1.3970     0.6140 h2         1 1Q8       0.035200
     14 H3           3.2390    -0.2630     1.1820 h2         1 1Q8       0.035200
     15 H4           4.5470    -0.1620    -0.7270 ho         1 1Q8       0.416000
     16 H5          -1.1700    -2.1150    -0.3890 ha         1 1Q8       0.141000
     17 H6          -3.5660    -1.6490    -0.7050 ha         1 1Q8       0.134500
     18 H7          -4.4510     0.6280    -0.3080 ha         1 1Q8       0.133000
     19 H8          -2.9190     2.4340     0.4100 ha         1 1Q8       0.134500
     20 H9          -0.5380     1.9870     0.7150 ha         1 1Q8       0.141000
@<TRIPOS>BOND
     1     1     2 2   
     2     2     3 1   
     3     2     6 1   
     4     3     4 1   
     5     3    12 1   
     6     4     5 1   
     7     4    13 1   
     8     4    14 1   
     9     5    15 1   
    10     6     7 ar  
    11     6    11 ar  
    12     7     8 ar  
    13     7    16 1   
    14     8     9 ar  
    15     8    17 1   
    16     9    10 ar  
    17     9    18 1   
    18    10    11 ar  
    19    10    19 1   
    20    11    20 1   
@<TRIPOS>SUBSTRUCTURE
     1 1Q8         1 TEMP              0 ****  ****    0 ROOT
