@<TRIPOS>MOLECULE
1Q8
   20    20     1     0     0
SMALL
No Charge or Current Charge


@<TRIPOS>ATOM
      1 O6           1.0720    -1.7310     0.6350 o          1 1Q8      -0.586100
      2 C2           0.7430    -0.5970     0.3130 c          1 1Q8       0.619700
      3 N5           1.6860     0.3760     0.0940 ns         1 1Q8      -0.502900
      4 C9           3.1030     0.1680     0.2170 c3         1 1Q8       0.334000
      5 O11          3.7710     1.3850    -0.0800 oh         1 1Q8      -0.679000
      6 C1          -0.7090    -0.1950     0.1360 ca         1 1Q8      -0.151600
      7 C4          -1.7260    -1.1550     0.3480 ca         1 1Q8      -0.071500
      8 C8          -3.0810    -0.8150     0.1920 ca         1 1Q8      -0.120000
      9 C10         -3.4430     0.4890    -0.1780 ca         1 1Q8      -0.089000
     10 C7          -2.4460     1.4540    -0.3920 ca         1 1Q8      -0.120000
     11 C3          -1.0890     1.1190    -0.2380 ca         1 1Q8      -0.071500
     12 H1           1.3660     1.2960    -0.1700 hn         1 1Q8       0.318500
     13 H2           3.3290    -0.1420     1.2450 h2         1 1Q8       0.035200
     14 H3           3.4110    -0.6110    -0.4920 h2         1 1Q8       0.035200
     15 H4           4.7320     1.1990     0.0150 ho         1 1Q8       0.455000
     16 H5          -1.4690    -2.1730     0.6350 ha         1 1Q8       0.123000
     17 H6          -3.8510    -1.5650     0.3590 ha         1 1Q8       0.116500
     18 H7          -4.4920     0.7510    -0.2980 ha         1 1Q8       0.115000
     19 H8          -2.7260     2.4650    -0.6790 ha         1 1Q8       0.116500
     20 H9          -0.3480     1.8950    -0.4130 ha         1 1Q8       0.123000
@<TRIPOS>BOND
     1     1     2 2   
     2     2     3 1   
     3     2     6 1   
     4     3     4 1   
     5     3    12 1   
     6     4     5 1   
     7     4    13 1   
     8     4    14 1   
     9     5    15 1   
    10     6     7 ar  
    11     6    11 ar  
    12     7     8 ar  
    13     7    16 1   
    14     8     9 ar  
    15     8    17 1   
    16     9    10 ar  
    17     9    18 1   
    18    10    11 ar  
    19    10    19 1   
    20    11    20 1   
@<TRIPOS>SUBSTRUCTURE
     1 1Q8         1 TEMP              0 ****  ****    0 ROOT
