@<TRIPOS>MOLECULE
1Q9
   35    36     1     0     0
SMALL
No Charge or Current Charge


@<TRIPOS>ATOM
      1 C1           0.8610     0.0340    -0.5820 c2         1 1Q9       0.110000
      2 C2          -1.2290     1.1770     0.2880 c3         1 1Q9       0.030000
      3 N1           1.6880     0.5560     0.3450 na         1 1Q9      -0.256000
      4 C3          -2.2520    -1.6090     1.8520 c3         1 1Q9      -0.048000
      5 O1          -2.7830    -1.3330     0.5420 os         1 1Q9      -0.218000
      6 C4          -1.3540    -2.8510     1.7200 c3         1 1Q9      -0.210000
      7 N3           1.5650    -0.7110    -1.3530 n2         1 1Q9      -0.204000
      8 N4           2.7860    -0.6370    -0.8980 n2         1 1Q9      -0.033000
      9 N5           2.9200     0.1110     0.1440 n2         1 1Q9      -0.060000
     10 N6          -0.5090     0.2620    -0.6070 nu         1 1Q9      -0.283000
     11 CG          -2.7550     1.0690     0.1450 ca         1 1Q9       0.031000
     12 CD1         -3.4880     2.2430    -0.1390 ca         1 1Q9      -0.217000
     13 CE1         -4.9040     2.2110    -0.3120 ca         1 1Q9      -0.802000
     14 CZ          -5.5740     0.9730    -0.2020 ca         1 1Q9       0.040000
     15 CE2         -4.8700    -0.2170     0.0860 ca         1 1Q9      -0.619000
     16 CD2         -3.4560    -0.1620     0.2830 ca         1 1Q9      -0.275000
     17 Cl1         -5.9470     3.7940    -0.7090 cl         1 1Q9       1.697000
     18 Cl2         -5.8770    -1.8350     0.2110 cl         1 1Q9       1.672000
     19 H1          -0.9500     0.9800     1.3300 h1         1 1Q9       0.071500
     20 H2          -0.9060     2.2030     0.0670 h1         1 1Q9       0.071500
     21 H3           1.4490     1.1360     1.1400 hn         1 1Q9       0.278000
     22 H4          -1.6550    -0.7690     2.2320 h1         1 1Q9       0.048000
     23 H5          -3.0570    -1.8060     2.5740 h1         1 1Q9       0.048000
     24 H6          -0.7990    -3.0280     2.6490 hc         1 1Q9       0.075667
     25 H7          -1.9480    -3.7460     1.5030 hc         1 1Q9       0.075667
     26 H8          -0.6240    -2.7180     0.9120 hc         1 1Q9       0.075667
     27 H9          -1.0510    -0.2100    -1.3280 hn         1 1Q9       0.261000
     28 H10         -2.9430     3.1820    -0.2350 ha         1 1Q9       0.098000
     29 H11         -6.6550     0.9290    -0.3440 ha         1 1Q9       0.078000
     30 H12          5.3910     2.0240    -2.9480 ha         1 1Q9      -0.295000
     31 H13          3.4530    -0.8090     5.8420 ha         1 1Q9      -0.295000
     32 H14          3.4700    -0.8280     5.8240 ha         1 1Q9      -0.295000
     33 H15          5.2790     0.5330    -8.1900 ha         1 1Q9      -0.217000
     34 H16          5.6410    -7.4930     1.2060 ha         1 1Q9      -0.217000
     35 H17          5.3050     0.5290    -8.1970 ha         1 1Q9      -0.217000
@<TRIPOS>BOND
     1     1     3 1   
     2     1     7 1   
     3     1    10 1   
     4     2    10 1   
     5     2    11 1   
     6     2    19 1   
     7     2    20 1   
     8     3     9 1   
     9     3    21 1   
    10     4     5 1   
    11     4     6 1   
    12     4    22 1   
    13     4    23 1   
    14     5    16 1   
    15     6    24 1   
    16     6    25 1   
    17     6    26 1   
    18     7     8 1   
    19     8     9 1   
    20    10    27 1   
    21    11    12 ar  
    22    11    16 ar  
    23    12    13 ar  
    24    12    28 1   
    25    13    14 ar  
    26    13    17 1   
    27    14    15 ar  
    28    14    29 1   
    29    15    16 ar  
    30    15    18 1   
    31    17    30 1   
    32    17    31 1   
    33    17    32 1   
    34    18    33 1   
    35    18    34 1   
    36    18    35 1   
@<TRIPOS>SUBSTRUCTURE
     1 1Q9         1 TEMP              0 ****  ****    0 ROOT
