@<TRIPOS>MOLECULE
1Q9
   35    36     1     0     0
SMALL
bcc


@<TRIPOS>ATOM
      1 C1           2.7570     0.5430    -0.3270 c2         1 1Q9       0.110000
      2 C2           0.6030     0.4280     0.8000 c3         1 1Q9       0.030000
      3 N1           3.4890     0.6750     0.7860 na         1 1Q9      -0.256000
      4 C3          -0.9880    -2.6760     0.7970 c3         1 1Q9      -0.048000
      5 O1          -0.8700    -1.7330    -0.2700 os         1 1Q9      -0.218000
      6 C4          -0.1810    -3.9010     0.4460 c3         1 1Q9      -0.210000
      7 N3           3.5990     0.4070    -1.3360 n2         1 1Q9      -0.204000
      8 N4           4.8200     0.4670    -0.8030 n2         1 1Q9      -0.033000
      9 N5           4.7840     0.6250     0.4540 n2         1 1Q9      -0.060000
     10 N6           1.4160     0.5850    -0.3980 nu         1 1Q9      -0.283000
     11 CG          -0.8550     0.5340     0.4500 ca         1 1Q9       0.031000
     12 CD1         -1.5220     1.7470     0.5940 ca         1 1Q9      -0.217000
     13 CE1         -2.8550     1.8870     0.2330 ca         1 1Q9      -0.802000
     14 CZ          -3.5100     0.7760    -0.2950 ca         1 1Q9       0.040000
     15 CE2         -2.8790    -0.4500    -0.4610 ca         1 1Q9      -0.619000
     16 CD2         -1.5380    -0.5580    -0.0800 ca         1 1Q9      -0.275000
     17 CL1         -3.5670     3.2010     0.3690 cl         1 1Q9       1.697000
     18 CL2         -3.6030    -1.6140    -1.0740 cl         1 1Q9       1.672000
     19 H1           0.8240    -0.5180     1.3040 h1         1 1Q9       0.071500
     20 H2           0.8530     1.2270     1.5020 h1         1 1Q9       0.071500
     21 H3           3.2070     0.7930     1.7480 hn         1 1Q9       0.278000
     22 H4          -0.6270    -2.2330     1.7310 h1         1 1Q9       0.048000
     23 H5          -2.0380    -2.9420     0.9530 h1         1 1Q9       0.048000
     24 H6          -0.2570    -4.6300     1.2520 hc         1 1Q9       0.075667
     25 H7          -0.5470    -4.3710    -0.4670 hc         1 1Q9       0.075667
     26 H8           0.8730    -3.6570     0.3110 hc         1 1Q9       0.075667
     27 H9           1.0340     0.2210    -1.2570 hn         1 1Q9       0.261000
     28 H10         -0.9860     2.5960     1.0020 ha         1 1Q9       0.098000
     29 H11         -4.5490     0.8710    -0.5940 ha         1 1Q9       0.078000
     30 H12         -3.7120     3.6720    -0.6050 ha         1 1Q9      -0.295000
     31 H13         -4.5560     3.0760     0.8130 ha         1 1Q9      -0.295000
     32 H14         -3.0070     3.8980     0.9900 ha         1 1Q9      -0.295000
     33 H15         -3.0620    -2.0110    -1.9330 ha         1 1Q9      -0.217000
     34 H16         -3.7330    -2.4370    -0.3690 ha         1 1Q9      -0.217000
     35 H17         -4.5940    -1.3160    -1.4120 ha         1 1Q9      -0.217000
@<TRIPOS>BOND
     1     1     3 1   
     2     1     7 1   
     3     1    10 1   
     4     2    10 1   
     5     2    11 1   
     6     2    19 1   
     7     2    20 1   
     8     3     9 1   
     9     3    21 1   
    10     4     5 1   
    11     4     6 1   
    12     4    22 1   
    13     4    23 1   
    14     5    16 1   
    15     6    24 1   
    16     6    25 1   
    17     6    26 1   
    18     7     8 1   
    19     8     9 1   
    20    10    27 1   
    21    11    12 1   
    22    11    16 1   
    23    12    13 1   
    24    12    28 1   
    25    13    14 1   
    26    13    17 1   
    27    14    15 1   
    28    14    29 1   
    29    15    16 1   
    30    15    18 1   
    31    17    30 1   
    32    17    31 1   
    33    17    32 1   
    34    18    33 1   
    35    18    34 1   
    36    18    35 1   
@<TRIPOS>SUBSTRUCTURE
     1 1Q9         1 TEMP              0 ****  ****    0 ROOT
