@<TRIPOS>MOLECULE
1QA
   41    43     1     0     0
SMALL
abcg2


@<TRIPOS>ATOM
      1 C1          -5.9780     0.6710    -0.1420 ca         1 1QA      -0.141000
      2 C2          -5.5900     1.9580     0.2010 ca         1 1QA      -0.048000
      3 C3          -4.2640     2.1920     0.5680 ca         1 1QA       0.351900
      4 C7          -2.6460    -1.0160     0.3420 cc         1 1QA       0.343400
      5 C9          -0.6090    -1.7860     0.6880 cd         1 1QA       0.324300
      6 C10         -1.2110    -2.9590     0.3440 cc         1 1QA      -0.264000
      7 C12          0.8300    -1.6170     1.0370 c3         1 1QA      -0.199700
      8 C13          1.6050    -0.9330    -0.0790 c          1 1QA       0.615100
      9 C15          3.6700     0.2130    -0.6410 c3         1 1QA      -0.006000
     10 C16          4.2300    -0.8940    -1.5860 c          1 1QA       0.731000
     11 O17          4.6440    -0.4790    -2.6830 o          1 1QA      -0.712000
     12 C19          4.8340     0.8400     0.0810 ca         1 1QA      -0.036300
     13 C20          5.5710     0.1060     1.0110 ca         1 1QA      -0.102500
     14 C21          6.6560     0.6750     1.6600 ca         1 1QA      -0.124500
     15 C22          7.0310     1.9840     1.3810 ca         1 1QA      -0.139000
     16 C24          5.2180     2.1480    -0.1940 ca         1 1QA      -0.102500
     17 C27         -6.5270     3.0310     0.1840 cg         1 1QA       0.334000
     18 N4          -3.3710     1.2290     0.5980 nb         1 1QA      -0.596000
     19 C5          -3.7140    -0.0150     0.2740 ca         1 1QA       0.334000
     20 C6          -5.0270    -0.3370    -0.1080 ca         1 1QA       0.089100
     21 N8          -1.4300    -0.7050     0.6840 nd         1 1QA      -0.581000
     22 S11         -2.8580    -2.7010    -0.0020 ss         1 1QA       0.011600
     23 N14          2.7150    -0.2990     0.3160 ns         1 1QA      -0.466900
     24 O18          4.2600    -2.0510    -1.1410 o          1 1QA      -0.712000
     25 C23          6.3100     2.7180     0.4490 ca         1 1QA      -0.124500
     26 O25          1.2390    -0.9760    -1.2430 o          1 1QA      -0.594100
     27 O26         -5.2980    -1.6050    -0.4200 oh         1 1QA      -0.520100
     28 N28         -7.2710     3.9100     0.1690 n1         1 1QA      -0.459000
     29 H1          -7.0000     0.4560    -0.4280 ha         1 1QA       0.126000
     30 H2          -3.9360     3.1870     0.8410 h4         1 1QA       0.037100
     31 H3          -0.7670    -3.9400     0.2760 h4         1 1QA       0.164000
     32 H4           0.9270    -1.0600     1.9720 hc         1 1QA       0.064200
     33 H5           1.2900    -2.5940     1.2080 hc         1 1QA       0.064200
     34 H6           3.1880     0.9780    -1.2560 h1         1 1QA       0.063700
     35 H8           5.3030    -0.9230     1.2210 ha         1 1QA       0.120500
     36 H9           7.2150     0.0930     2.3820 ha         1 1QA       0.092000
     37 H10          7.8790     2.4280     1.8860 ha         1 1QA       0.089000
     38 H11          4.6550     2.7310    -0.9120 ha         1 1QA       0.120500
     39 H12          2.9650    -0.3210     1.2920 hn         1 1QA       0.291500
     40 H13          6.5930     3.7380     0.2250 ha         1 1QA       0.092000
     41 H14         -6.2230    -1.7260    -0.6700 ho         1 1QA       0.471000
@<TRIPOS>BOND
     1     1     2 ar  
     2     1    20 ar  
     3     1    29 1   
     4     2     3 ar  
     5     2    17 1   
     6     3    18 ar  
     7     3    30 1   
     8     4    19 1   
     9     4    21 2   
    10     4    22 1   
    11     5     6 2   
    12     5     7 1   
    13     5    21 1   
    14     6    22 1   
    15     6    31 1   
    16     7     8 1   
    17     7    32 1   
    18     7    33 1   
    19     8    23 1   
    20     8    26 2   
    21     9    10 1   
    22     9    12 1   
    23     9    23 1   
    24     9    34 1   
    25    10    11 1   
    26    10    24 1   
    27    12    13 ar  
    28    12    16 ar  
    29    13    14 ar  
    30    13    35 1   
    31    14    15 ar  
    32    14    36 1   
    33    15    25 ar  
    34    15    37 1   
    35    16    25 ar  
    36    16    38 1   
    37    17    28 3   
    38    18    19 ar  
    39    19    20 ar  
    40    20    27 1   
    41    23    39 1   
    42    25    40 1   
    43    27    41 1   
@<TRIPOS>SUBSTRUCTURE
     1 1QA         1 TEMP              0 ****  ****    0 ROOT
