@<TRIPOS>MOLECULE
1QA
   41    43     1     0     0
SMALL
No Charge or Current Charge


@<TRIPOS>ATOM
      1 C1          -4.1800     2.1050    -0.1370 ca         1 1QA      -0.141000
      2 C2          -4.3430     2.5340     1.1950 ca         1 1QA      -0.048000
      3 C3          -3.7740     1.7740     2.2300 ca         1 1QA       0.351900
      4 C7          -2.1460    -1.0390     0.5050 cc         1 1QA       0.343400
      5 C9          -0.4780    -2.5090     0.6310 cd         1 1QA       0.324300
      6 C10         -1.3810    -3.2590    -0.0820 cc         1 1QA      -0.264000
      7 C12          0.8850    -2.9550     1.0490 c3         1 1QA      -0.199700
      8 C13          1.9140    -2.5810    -0.0050 c          1 1QA       0.615100
      9 C15          3.7310    -0.9190    -0.5900 c3         1 1QA      -0.006000
     10 C16          5.0450    -1.7650    -0.5170 c          1 1QA       0.731000
     11 O17          5.6810    -1.9270    -1.5510 o          1 1QA      -0.712000
     12 C19          3.9900     0.5550    -0.2850 ca         1 1QA      -0.036300
     13 C20          4.4350     0.9600     0.9910 ca         1 1QA      -0.102500
     14 C21          4.6650     2.3190     1.2660 ca         1 1QA      -0.124500
     15 C22          4.4510     3.2840     0.2680 ca         1 1QA      -0.139000
     16 C24          3.7760     1.5310    -1.2800 ca         1 1QA      -0.102500
     17 C27         -5.0700     3.7280     1.5070 cg         1 1QA       0.334000
     18 N4          -3.0740     0.6360     2.0120 nb         1 1QA      -0.596000
     19 C5          -2.9140     0.2040     0.7260 ca         1 1QA       0.334000
     20 C6          -3.4540     0.9250    -0.3800 ca         1 1QA       0.089100
     21 N8          -0.9150    -1.2430     0.9770 nd         1 1QA      -0.581000
     22 S11         -2.8550    -2.3810    -0.3630 ss         1 1QA       0.011600
     23 N14          2.6670    -1.4660     0.2840 ns         1 1QA      -0.466900
     24 O18          5.4010    -2.2230     0.5630 o          1 1QA      -0.712000
     25 C23          4.0070     2.8900    -1.0040 ca         1 1QA      -0.124500
     26 O25          2.0540    -3.2190    -1.0380 o          1 1QA      -0.594100
     27 O26         -3.2690     0.5120    -1.6760 oh         1 1QA      -0.520100
     28 N28         -5.6660     4.7030     1.7510 n1         1 1QA      -0.459000
     29 H1          -4.6050     2.6800    -0.9570 ha         1 1QA       0.126000
     30 H2          -3.8790     2.0800     3.2710 h4         1 1QA       0.037100
     31 H3          -1.2710    -4.2670    -0.4590 h4         1 1QA       0.164000
     32 H4           1.1370    -2.4790     2.0040 hc         1 1QA       0.064200
     33 H5           0.8830    -4.0430     1.1700 hc         1 1QA       0.064200
     34 H6           3.3750    -0.9970    -1.6250 h1         1 1QA       0.063700
     35 H8           4.6030     0.2200     1.7700 ha         1 1QA       0.120500
     36 H9           5.0080     2.6230     2.2520 ha         1 1QA       0.092000
     37 H10          4.6290     4.3360     0.4820 ha         1 1QA       0.089000
     38 H11          3.4310     1.2370    -2.2690 ha         1 1QA       0.120500
     39 H12          2.4750    -1.0000     1.1620 hn         1 1QA       0.291500
     40 H13          3.8400     3.6370    -1.7770 ha         1 1QA       0.092000
     41 H14         -3.7020     1.1500    -2.2840 ho         1 1QA       0.471000
@<TRIPOS>BOND
     1     1     2 ar  
     2     1    20 ar  
     3     1    29 1   
     4     2     3 ar  
     5     2    17 1   
     6     3    18 ar  
     7     3    30 1   
     8     4    19 1   
     9     4    21 2   
    10     4    22 1   
    11     5     6 2   
    12     5     7 1   
    13     5    21 1   
    14     6    22 1   
    15     6    31 1   
    16     7     8 1   
    17     7    32 1   
    18     7    33 1   
    19     8    23 1   
    20     8    26 2   
    21     9    10 1   
    22     9    12 1   
    23     9    23 1   
    24     9    34 1   
    25    10    11 1   
    26    10    24 1   
    27    12    13 ar  
    28    12    16 ar  
    29    13    14 ar  
    30    13    35 1   
    31    14    15 ar  
    32    14    36 1   
    33    15    25 ar  
    34    15    37 1   
    35    16    25 ar  
    36    16    38 1   
    37    17    28 3   
    38    18    19 ar  
    39    19    20 ar  
    40    20    27 1   
    41    23    39 1   
    42    25    40 1   
    43    27    41 1   
@<TRIPOS>SUBSTRUCTURE
     1 1QA         1 TEMP              0 ****  ****    0 ROOT
