@<TRIPOS>MOLECULE
1QB
   26    27     1     0     0
SMALL
abcg2


@<TRIPOS>ATOM
      1 O13          2.7730     1.5720     0.5100 o          1 1QB      -0.585100
      2 C11          3.0700     0.4540     0.1250 c          1 1QB       0.608100
      3 C12          4.5010     0.0350    -0.1200 c3         1 1QB      -0.185100
      4 N10          2.1740    -0.5340    -0.1270 ns         1 1QB      -0.428100
      5 C7           0.7730    -0.5420    -0.0050 c2         1 1QB       0.049400
      6 C3           0.0460     0.7750     0.0350 c6         1 1QB       0.020000
      7 C9           0.1520    -1.7260     0.0140 c2         1 1QB      -0.296200
      8 C5          -1.3310    -1.9200     0.0550 c6         1 1QB       0.036000
      9 C2          -2.0480    -0.6170     0.0160 ce         1 1QB      -0.100200
     10 C6          -3.4970    -0.4050    -0.0110 ce         1 1QB      -0.182000
     11 C8          -3.7480     0.9120    -0.0420 c2         1 1QB      -0.235200
     12 C4          -2.4520     1.6620    -0.0360 c5         1 1QB      -0.028000
     13 C1          -1.4290     0.5720    -0.0010 c2         1 1QB      -0.131400
     14 H1           5.1730     0.8670     0.0710 hc         1 1QB       0.063033
     15 H2           4.7790    -0.7950     0.5310 hc         1 1QB       0.063033
     16 H3           4.6380    -0.3000    -1.1490 hc         1 1QB       0.063033
     17 H4           2.5750    -1.4270    -0.3770 hn         1 1QB       0.310500
     18 H5           0.3280     1.3360     0.9290 hc         1 1QB       0.076200
     19 H6           0.3670     1.4000    -0.8050 hc         1 1QB       0.076200
     20 H7           0.7520    -2.6310    -0.0190 ha         1 1QB       0.166000
     21 H8          -1.6450    -2.5550    -0.7810 hc         1 1QB       0.053200
     22 H9          -1.6120    -2.4850     0.9520 hc         1 1QB       0.053200
     23 H10         -4.2320    -1.1990    -0.0070 ha         1 1QB       0.189000
     24 H11         -4.7190     1.3850    -0.0710 ha         1 1QB       0.192000
     25 H12         -2.3470     2.3040    -0.9190 hc         1 1QB       0.076700
     26 H13         -2.3710     2.3330     0.8270 hc         1 1QB       0.076700
@<TRIPOS>BOND
     1     1     2 2   
     2     2     3 1   
     3     2     4 1   
     4     3    14 1   
     5     3    15 1   
     6     3    16 1   
     7     4     5 1   
     8     4    17 1   
     9     5     6 1   
    10     5     7 2   
    11     6    13 1   
    12     6    18 1   
    13     6    19 1   
    14     7     8 1   
    15     7    20 1   
    16     8     9 1   
    17     8    21 1   
    18     8    22 1   
    19     9    10 1   
    20     9    13 2   
    21    10    11 2   
    22    10    23 1   
    23    11    12 1   
    24    11    24 1   
    25    12    13 1   
    26    12    25 1   
    27    12    26 1   
@<TRIPOS>SUBSTRUCTURE
     1 1QB         1 TEMP              0 ****  ****    0 ROOT
