@<TRIPOS>MOLECULE
1QB
   26    27     1     0     0
SMALL
No Charge or Current Charge


@<TRIPOS>ATOM
      1 O13          2.8210     1.6720     0.0140 o          1 1QB      -0.585100
      2 C11          3.1270     0.4890    -0.0250 c          1 1QB       0.608100
      3 C12          4.5840     0.0420    -0.0500 c3         1 1QB      -0.185100
      4 N10          2.2180    -0.5560    -0.0480 ns         1 1QB      -0.428100
      5 C7           0.8060    -0.5590    -0.0370 c2         1 1QB       0.049400
      6 C3           0.0650     0.7900     0.0090 c6         1 1QB       0.020000
      7 C9           0.1540    -1.7400    -0.0670 c2         1 1QB      -0.296200
      8 C5          -1.3670    -1.9130    -0.0590 c6         1 1QB       0.036000
      9 C2          -2.0680    -0.5640    -0.0130 ce         1 1QB      -0.100200
     10 C6          -3.5040    -0.4010     0.0030 ce         1 1QB      -0.182000
     11 C8          -3.8320     0.9050     0.0450 c2         1 1QB      -0.235200
     12 C4          -2.5120     1.6920     0.0570 c5         1 1QB      -0.028000
     13 C1          -1.4370     0.6080     0.0160 c2         1 1QB      -0.131400
     14 H1           5.2840     0.8850    -0.0300 hc         1 1QB       0.063033
     15 H2           4.7600    -0.6500     0.7820 hc         1 1QB       0.063033
     16 H3           4.7460    -0.5980    -0.9250 hc         1 1QB       0.063033
     17 H4           2.6570    -1.4680    -0.0790 hn         1 1QB       0.310500
     18 H5           0.3590     1.3470     0.9090 hc         1 1QB       0.076200
     19 H6           0.3440     1.4000    -0.8600 hc         1 1QB       0.076200
     20 H7           0.7180    -2.6730    -0.0990 ha         1 1QB       0.166000
     21 H8          -1.6830    -2.4640    -0.9560 hc         1 1QB       0.053200
     22 H9          -1.6690    -2.5160     0.8080 hc         1 1QB       0.053200
     23 H10         -4.2010    -1.2430    -0.0160 ha         1 1QB       0.189000
     24 H11         -4.8450     1.3160     0.0650 ha         1 1QB       0.192000
     25 H12         -2.4360     2.3610    -0.8080 hc         1 1QB       0.076700
     26 H13         -2.4210     2.3080     0.9590 hc         1 1QB       0.076700
@<TRIPOS>BOND
     1     1     2 2   
     2     2     3 1   
     3     2     4 1   
     4     3    14 1   
     5     3    15 1   
     6     3    16 1   
     7     4     5 1   
     8     4    17 1   
     9     5     6 1   
    10     5     7 2   
    11     6    13 1   
    12     6    18 1   
    13     6    19 1   
    14     7     8 1   
    15     7    20 1   
    16     8     9 1   
    17     8    21 1   
    18     8    22 1   
    19     9    10 1   
    20     9    13 2   
    21    10    11 2   
    22    10    23 1   
    23    11    12 1   
    24    11    24 1   
    25    12    13 1   
    26    12    25 1   
    27    12    26 1   
@<TRIPOS>SUBSTRUCTURE
     1 1QB         1 TEMP              0 ****  ****    0 ROOT
