@<TRIPOS>MOLECULE
1QC
   62    64     1     0     0
SMALL
No Charge or Current Charge


@<TRIPOS>ATOM
      1 CAC          8.0000     1.9540     0.8390 c3         1 1QC      -0.388100
      2 SBH          7.0230     2.9580    -0.2640 s6         1 1QC       1.193100
      3 OAF          6.7660     4.2590     0.3560 o          1 1QC      -0.530000
      4 OAG          7.5640     2.8790    -1.6210 o          1 1QC      -0.530000
      5 NAT          5.5700     2.1510    -0.3010 n7         1 1QC      -0.864300
      6 CAM          4.7200     2.1470     0.9110 c3         1 1QC       0.201800
      7 CAN          3.5360     1.1650     0.7510 c3         1 1QC       0.158600
      8 OAV          4.0790    -0.1520     0.5160 os         1 1QC      -0.344100
      9 CBD          3.2820    -1.2690     0.3230 ca         1 1QC       0.107100
     10 CAK          1.8710    -1.1960     0.3630 ca         1 1QC      -0.127000
     11 CBC          3.9130    -2.5090     0.0790 ca         1 1QC       0.127100
     12 OAU          5.2980    -2.5560     0.0420 os         1 1QC      -0.325100
     13 CAB          6.0240    -3.7740    -0.1980 c3         1 1QC       0.144900
     14 CAI          3.1230    -3.6620    -0.1210 ca         1 1QC      -0.176000
     15 CAH          1.7220    -3.5800    -0.0790 ca         1 1QC      -0.088000
     16 CBA          1.0720    -2.3480     0.1630 ca         1 1QC      -0.132500
     17 CBG         -0.4030    -2.2570     0.2100 cc         1 1QC       0.500900
     18 NAS         -1.0420    -1.1170     0.4490 nd         1 1QC      -0.634000
     19 SAX         -1.4280    -3.6510    -0.0450 ss         1 1QC      -0.035400
     20 CBF         -2.8070    -2.6160     0.1790 cc         1 1QC      -0.202300
     21 CAO         -4.2060    -3.1750     0.0910 c3         1 1QC      -0.005100
     22 CAL         -4.6610    -3.4050    -1.3650 c3         1 1QC      -0.076400
     23 CAA         -6.1010    -3.9450    -1.4720 c3         1 1QC      -0.089100
     24 CBE         -2.4140    -1.3170     0.4310 cd         1 1QC       0.286300
     25 CAP         -3.3330    -0.1460     0.6790 c3         1 1QC       0.026300
     26 SAW         -4.2280     0.4480    -0.8350 ss         1 1QC      -0.313300
     27 C2          -5.2540     1.7920    -0.2470 ca         1 1QC       0.312300
     28 N3          -6.0020     2.4190    -1.1780 nb         1 1QC      -0.294500
     29 N1          -5.2210     2.0920     1.0680 nb         1 1QC      -0.294500
     30 C6          -6.0010     3.1010     1.4650 ca         1 1QC       0.411900
     31 NAD         -5.9690     3.4010     2.7820 nv         1 1QC      -1.068400
     32 C5          -6.8100     3.8140     0.5890 ca         1 1QC      -0.386000
     33 C4          -6.7700     3.4220    -0.7420 ca         1 1QC       0.411900
     34 NAE         -7.5170     4.0520    -1.6750 nv         1 1QC      -1.068400
     35 H1           7.5280     1.9680     1.8260 h1         1 1QC       0.100367
     36 H2           8.0480     0.9410     0.4280 h1         1 1QC       0.100367
     37 H3           8.9980     2.4040     0.8830 h1         1 1QC       0.100367
     38 H4           5.8860     1.1940    -0.4540 hn         1 1QC       0.496000
     39 H5           5.2890     1.8440     1.8010 h1         1 1QC       0.061200
     40 H6           4.3190     3.1510     1.1050 h1         1 1QC       0.061200
     41 H7           2.9290     1.1810     1.6650 h1         1 1QC       0.054200
     42 H8           2.9120     1.4870    -0.0930 h1         1 1QC       0.054200
     43 H9           1.3820    -0.2440     0.5500 ha         1 1QC       0.144000
     44 H10          5.8020    -4.5190     0.5750 h1         1 1QC       0.042033
     45 H11          5.7670    -4.1940    -1.1790 h1         1 1QC       0.042033
     46 H12          7.1040    -3.5810    -0.1840 h1         1 1QC       0.042033
     47 H13          3.5770    -4.6300    -0.3100 ha         1 1QC       0.123000
     48 H14          1.1520    -4.4920    -0.2370 ha         1 1QC       0.119000
     49 H19         -4.2540    -4.1260     0.6360 hc         1 1QC       0.053700
     50 H20         -4.9170    -2.5030     0.5870 hc         1 1QC       0.053700
     51 H21         -4.5910    -2.4620    -1.9200 hc         1 1QC       0.049700
     52 H22         -3.9770    -4.1120    -1.8520 hc         1 1QC       0.049700
     53 H23         -6.1950    -4.9060    -0.9540 hc         1 1QC       0.033367
     54 H24         -6.8130    -3.2390    -1.0280 hc         1 1QC       0.033367
     55 H25         -6.3760    -4.0930    -2.5230 hc         1 1QC       0.033367
     56 H26         -4.0700    -0.4340     1.4380 h1         1 1QC       0.086700
     57 H27         -2.7460     0.6860     1.0870 h1         1 1QC       0.086700
     58 H28         -5.5340     2.7360     3.4160 hn         1 1QC       0.486250
     59 H29         -6.6990     3.9930     3.1690 hn         1 1QC       0.486250
     60 H30         -7.4390     4.6310     0.9270 ha         1 1QC       0.125000
     61 H31         -7.3060     3.8800    -2.6560 hn         1 1QC       0.486250
     62 H32         -7.9310     4.9520    -1.4470 hn         1 1QC       0.486250
@<TRIPOS>BOND
     1     1     2 1   
     2     1    35 1   
     3     1    36 1   
     4     1    37 1   
     5     2     3 2   
     6     2     4 2   
     7     2     5 1   
     8     5     6 1   
     9     5    38 1   
    10     6     7 1   
    11     6    39 1   
    12     6    40 1   
    13     7     8 1   
    14     7    41 1   
    15     7    42 1   
    16     8     9 1   
    17     9    10 ar  
    18     9    11 ar  
    19    10    16 ar  
    20    10    43 1   
    21    11    12 1   
    22    11    14 ar  
    23    12    13 1   
    24    13    44 1   
    25    13    45 1   
    26    13    46 1   
    27    14    15 ar  
    28    14    47 1   
    29    15    16 ar  
    30    15    48 1   
    31    16    17 1   
    32    17    18 2   
    33    17    19 1   
    34    18    24 1   
    35    19    20 1   
    36    20    21 1   
    37    20    24 2   
    38    21    22 1   
    39    21    49 1   
    40    21    50 1   
    41    22    23 1   
    42    22    51 1   
    43    22    52 1   
    44    23    53 1   
    45    23    54 1   
    46    23    55 1   
    47    24    25 1   
    48    25    26 1   
    49    25    56 1   
    50    25    57 1   
    51    26    27 1   
    52    27    28 ar  
    53    27    29 ar  
    54    28    33 ar  
    55    29    30 ar  
    56    30    31 1   
    57    30    32 ar  
    58    31    58 1   
    59    31    59 1   
    60    32    33 ar  
    61    32    60 1   
    62    33    34 1   
    63    34    61 1   
    64    34    62 1   
@<TRIPOS>SUBSTRUCTURE
     1 1QC         1 TEMP              0 ****  ****    0 ROOT
