@<TRIPOS>MOLECULE
1QC
   62    64     1     0     0
SMALL
bcc


@<TRIPOS>ATOM
      1 CAC          7.8950     2.7250     1.1130 c3         1 1QC      -0.277300
      2 SBH          6.5370     3.2020     0.0680 s6         1 1QC       1.223900
      3 OAF          5.8920     4.3600     0.6680 o          1 1QC      -0.600800
      4 OAG          7.0230     3.2810    -1.3010 o          1 1QC      -0.600800
      5 NAT          5.4450     1.9700     0.1000 n7         1 1QC      -0.809100
      6 CAM          4.7410     1.6690     1.3420 c3         1 1QC       0.201800
      7 CAN          3.5570     0.7740     1.0650 c3         1 1QC       0.135400
      8 OAV          4.0600    -0.4420     0.5430 os         1 1QC      -0.320900
      9 CBD          3.1920    -1.4110     0.1990 ca         1 1QC       0.107100
     10 CAK          1.8250    -1.3410     0.3710 ca         1 1QC      -0.145000
     11 CBC          3.7740    -2.5680    -0.3650 ca         1 1QC       0.127100
     12 OAU          5.1070    -2.5400    -0.5020 os         1 1QC      -0.301900
     13 CAB          5.7450    -3.6630    -1.0780 c3         1 1QC       0.121700
     14 CAI          2.9550    -3.6240    -0.7300 ca         1 1QC      -0.194000
     15 CAH          1.5790    -3.5490    -0.5470 ca         1 1QC      -0.106000
     16 CBA          1.0020    -2.4160     0.0030 ca         1 1QC      -0.132500
     17 CBG         -0.4390    -2.3040     0.2070 cc         1 1QC       0.500900
     18 NAS         -1.0620    -1.1940     0.4460 nd         1 1QC      -0.634000
     19 SAX         -1.4830    -3.6880     0.1810 ss         1 1QC      -0.180300
     20 CBF         -2.8380    -2.6740     0.5010 cc         1 1QC      -0.122700
     21 CAO         -4.2260    -3.2130     0.5520 c3         1 1QC      -0.005100
     22 CAL         -4.8020    -3.5090    -0.8350 c3         1 1QC      -0.076400
     23 CAA         -6.2360    -4.0110    -0.7580 c3         1 1QC      -0.089100
     24 CBE         -2.4040    -1.3850     0.6130 cd         1 1QC       0.351600
     25 CAP         -3.2830    -0.2030     0.8490 c3         1 1QC      -0.021600
     26 SAW         -3.7460     0.4700    -0.7800 ss         1 1QC      -0.265400
     27 C2          -4.8070     1.8110    -0.3570 ca         1 1QC       0.838300
     28 N3          -5.2520     2.4640    -1.4140 nb         1 1QC      -0.820500
     29 N1          -5.0610     2.0350     0.9130 nb         1 1QC      -0.820500
     30 C6          -5.8830     3.0700     1.1710 ca         1 1QC       0.740200
     31 NAD         -6.1220     3.3340     2.4710 nv         1 1QC      -0.958000
     32 C5          -6.4260     3.8410     0.1470 ca         1 1QC      -0.534600
     33 C4          -6.0770     3.4930    -1.1590 ca         1 1QC       0.740200
     34 NAE         -6.5740     4.1470    -2.2270 nv         1 1QC      -0.958000
     35 H1           7.5390     2.5620     2.1280 h1         1 1QC       0.100367
     36 H2           8.3430     1.8140     0.7220 h1         1 1QC       0.100367
     37 H3           8.6250     3.5320     1.1060 h1         1 1QC       0.100367
     38 H4           5.7910     1.1480    -0.3860 hn         1 1QC       0.440800
     39 H5           5.3900     1.1990     2.0870 h1         1 1QC       0.061200
     40 H6           4.3610     2.5960     1.7680 h1         1 1QC       0.061200
     41 H7           3.0170     0.6070     2.0030 h1         1 1QC       0.054200
     42 H8           2.8750     1.2510     0.3540 h1         1 1QC       0.054200
     43 H9           1.3660    -0.4630     0.8030 ha         1 1QC       0.162000
     44 H10          5.5920    -4.5680    -0.4840 h1         1 1QC       0.042033
     45 H11          5.3990    -3.8470    -2.0990 h1         1 1QC       0.042033
     46 H12          6.8070    -3.4340    -1.1020 h1         1 1QC       0.042033
     47 H13          3.3700    -4.5220    -1.1670 ha         1 1QC       0.141000
     48 H14          0.9730    -4.3900    -0.8600 ha         1 1QC       0.137000
     49 H19         -4.2550    -4.1210     1.1610 hc         1 1QC       0.053700
     50 H20         -4.8650    -2.4890     1.0630 hc         1 1QC       0.053700
     51 H21         -4.7530    -2.5990    -1.4400 hc         1 1QC       0.049700
     52 H22         -4.1740    -4.2500    -1.3370 hc         1 1QC       0.049700
     53 H23         -6.3040    -4.9210    -0.1600 hc         1 1QC       0.033367
     54 H24         -6.8900    -3.2650    -0.3020 hc         1 1QC       0.033367
     55 H25         -6.6310    -4.2350    -1.7490 hc         1 1QC       0.033367
     56 H26         -4.1870    -0.4750     1.3910 h1         1 1QC       0.086700
     57 H27         -2.7560     0.5600     1.4190 h1         1 1QC       0.086700
     58 H28         -5.8670     2.6390     3.1520 hn         1 1QC       0.431050
     59 H29         -6.8680     3.9570     2.7250 hn         1 1QC       0.431050
     60 H30         -7.0860     4.6740     0.3520 ha         1 1QC       0.143000
     61 H31         -6.1440     3.9930    -3.1230 hn         1 1QC       0.431050
     62 H32         -7.0350     5.0310    -2.0980 hn         1 1QC       0.431050
@<TRIPOS>BOND
     1     1     2 1   
     2     1    35 1   
     3     1    36 1   
     4     1    37 1   
     5     2     3 2   
     6     2     4 2   
     7     2     5 1   
     8     5     6 1   
     9     5    38 1   
    10     6     7 1   
    11     6    39 1   
    12     6    40 1   
    13     7     8 1   
    14     7    41 1   
    15     7    42 1   
    16     8     9 1   
    17     9    10 ar  
    18     9    11 ar  
    19    10    16 ar  
    20    10    43 1   
    21    11    12 1   
    22    11    14 ar  
    23    12    13 1   
    24    13    44 1   
    25    13    45 1   
    26    13    46 1   
    27    14    15 ar  
    28    14    47 1   
    29    15    16 ar  
    30    15    48 1   
    31    16    17 1   
    32    17    18 2   
    33    17    19 1   
    34    18    24 1   
    35    19    20 1   
    36    20    21 1   
    37    20    24 2   
    38    21    22 1   
    39    21    49 1   
    40    21    50 1   
    41    22    23 1   
    42    22    51 1   
    43    22    52 1   
    44    23    53 1   
    45    23    54 1   
    46    23    55 1   
    47    24    25 1   
    48    25    26 1   
    49    25    56 1   
    50    25    57 1   
    51    26    27 1   
    52    27    28 ar  
    53    27    29 ar  
    54    28    33 ar  
    55    29    30 ar  
    56    30    31 1   
    57    30    32 ar  
    58    31    58 1   
    59    31    59 1   
    60    32    33 ar  
    61    32    60 1   
    62    33    34 1   
    63    34    61 1   
    64    34    62 1   
@<TRIPOS>SUBSTRUCTURE
     1 1QC         1 TEMP              0 ****  ****    0 ROOT
