@<TRIPOS>MOLECULE
1QD
   72    77     1     0     0
SMALL
No Charge or Current Charge


@<TRIPOS>ATOM
      1 O10        -37.1740    29.9440     7.4390 o          1 1QD      -0.830500
      2 C13        -35.2940    30.3670    10.2150 c5         1 1QD       0.119300
      3 C15        -33.3470    29.6850    11.4440 c5         1 1QD       0.084300
      4 C16        -33.3840    31.2430    11.3160 c5         1 1QD       0.279300
      5 C19        -34.6780    32.1750    13.3070 cc         1 1QD       0.423700
      6 C01        -31.1620    32.6830     7.9730 c5         1 1QD       0.268300
      7 C02        -31.5050    31.1690     8.1820 c5         1 1QD       0.082300
      8 C03        -31.1520    30.6220     6.7720 c5         1 1QD       0.117300
      9 C04        -31.8150    31.7340     5.8960 c5         1 1QD       0.159300
     10 C05        -33.3430    31.4920     5.6480 c3         1 1QD       0.197600
     11 C12        -36.8130    30.7010    10.2590 c3         1 1QD       0.235600
     12 C14        -34.8650    29.3750    11.3430 c5         1 1QD       0.147300
     13 C21        -33.0720    33.1460    14.3580 ca         1 1QD      -0.091600
     14 C22        -32.5020    32.6380    13.2200 ca         1 1QD       0.109500
     15 C24        -30.4670    33.4500    13.8750 ca         1 1QD       0.175900
     16 C26        -32.2410    33.8350    15.2670 ca         1 1QD       0.451900
     17 C37        -33.1550    33.7980     9.0170 ca         1 1QD       0.140700
     18 C38        -33.7580    34.5550    10.0430 ca         1 1QD      -0.095000
     19 C39        -32.9540    35.2650    10.9600 ca         1 1QD       0.042000
     20 C40        -31.5550    35.2040    10.8030 ca         1 1QD      -0.114000
     21 C41        -30.9900    34.4110     9.7870 ca         1 1QD      -0.113000
     22 C42        -33.5690    36.0110    11.9950 ca         1 1QD       0.165000
     23 C43        -34.9700    36.0270    12.1080 ca         1 1QD      -0.015000
     24 C44        -35.7650    35.3150    11.1950 ca         1 1QD      -0.130000
     25 C45        -35.1630    34.5840    10.1580 ca         1 1QD       0.030000
     26 I46        -32.4250    37.1670    13.4470 i          1 1QD      -0.307000
     27 N18        -33.5160    32.0260    12.5420 na         1 1QD      -0.301300
     28 N20        -34.4410    32.8740    14.4330 nd         1 1QD      -0.560100
     29 N23        -31.1880    32.7700    12.9520 nb         1 1QD      -0.235000
     30 N25        -30.9300    33.9940    15.0270 nb         1 1QD      -0.308000
     31 N27        -32.7070    34.3730    16.4260 nv         1 1QD      -1.064900
     32 N36        -31.7680    33.6370     8.9150 na         1 1QD       0.035300
     33 O06        -34.0940    32.6960     5.8690 os         1 1QD      -0.591400
     34 O08        -35.7830    32.0750     7.4040 os         1 1QD      -0.741800
     35 O11        -37.1990    31.6960     9.2930 os         1 1QD      -0.596400
     36 O17        -34.4890    31.5570    10.4380 os         1 1QD      -0.461000
     37 O28        -32.6260    29.0480    10.3720 oh         1 1QD      -0.699000
     38 O29        -35.1000    27.9980    11.0120 oh         1 1QD      -0.659000
     39 O30        -38.3560    32.1030     7.1020 o          1 1QD      -0.830500
     40 O31        -36.2610    33.9830     5.7890 o          1 1QD      -0.818000
     41 O32        -36.1790    31.6620     4.8720 o          1 1QD      -0.818000
     42 O33        -31.5740    32.9810     6.6170 os         1 1QD      -0.423000
     43 O34        -29.7270    30.5350     6.6140 oh         1 1QD      -0.720000
     44 O35        -30.7270    30.5180     9.2060 oh         1 1QD      -0.741000
     45 P07        -35.7000    32.6070     5.9220 p5         1 1QD       1.445800
     46 P09        -37.1810    31.4110     7.7060 p5         1 1QD       1.441800
     47 H131       -35.0430    29.9530     9.2300 h1         1 1QD       0.119700
     48 H151       -32.9370    29.3760    12.4160 h1         1 1QD       0.060700
     49 H161       -32.4480    31.5950    10.8670 h2         1 1QD       0.094700
     50 H2         -35.6360    31.7760    12.9960 h5         1 1QD       0.087800
     51 H011       -30.0770    32.8210     8.0480 h2         1 1QD       0.085700
     52 H021       -32.5820    31.0500     8.3790 h1         1 1QD       0.106700
     53 H031       -31.6160    29.6400     6.5960 h1         1 1QD       0.090700
     54 H041       -31.3290    31.8000     4.9130 h1         1 1QD       0.096700
     55 H3         -33.4760    31.1370     4.6180 h1         1 1QD       0.052200
     56 H4         -33.7000    30.6940     6.3130 h1         1 1QD       0.052200
     57 H5         -37.0610    31.0580    11.2670 h1         1 1QD       0.032200
     58 H6         -37.3820    29.7750    10.1020 h1         1 1QD       0.032200
     59 H141       -35.3710    29.6250    12.2850 h1         1 1QD       0.038700
     60 H7         -29.4040    33.5710    13.6710 h5         1 1QD       0.042100
     61 H8         -33.7640    33.2480     8.3030 h4         1 1QD       0.248000
     62 H9         -30.8900    35.7500    11.4660 ha         1 1QD       0.153000
     63 H10        -29.9060    34.3560     9.6710 h4         1 1QD       0.164000
     64 H11        -35.4380    36.5950    12.9070 ha         1 1QD       0.129000
     65 H12        -36.8490    35.3300    11.2900 ha         1 1QD       0.144000
     66 H13        -35.7880    34.0260     9.4620 ha         1 1QD       0.204000
     67 H14        -32.1510    35.1000    16.8660 hn         1 1QD       0.506000
     68 H15        -33.7170    34.4530    16.5200 hn         1 1QD       0.506000
     69 H16        -33.1300    28.2110    10.2020 ho         1 1QD       0.509000
     70 H17        -35.2350    27.5090    11.8570 ho         1 1QD       0.501000
     71 H19        -29.4000    30.3300     7.5260 ho         1 1QD       0.514000
     72 H20        -31.3530    29.8940     9.6860 ho         1 1QD       0.544000
@<TRIPOS>BOND
     1     1    46 1   
     2     2    11 1   
     3     2    12 1   
     4     2    36 1   
     5     2    47 1   
     6     3     4 1   
     7     3    12 1   
     8     3    37 1   
     9     3    48 1   
    10     4    27 1   
    11     4    36 1   
    12     4    49 1   
    13     5    27 1   
    14     5    28 2   
    15     5    50 1   
    16     6     7 1   
    17     6    32 1   
    18     6    42 1   
    19     6    51 1   
    20     7     8 1   
    21     7    44 1   
    22     7    52 1   
    23     8     9 1   
    24     8    43 1   
    25     8    53 1   
    26     9    10 1   
    27     9    42 1   
    28     9    54 1   
    29    10    33 1   
    30    10    55 1   
    31    10    56 1   
    32    11    35 1   
    33    11    57 1   
    34    11    58 1   
    35    12    38 1   
    36    12    59 1   
    37    13    14 ar  
    38    13    16 ar  
    39    13    28 1   
    40    14    27 1   
    41    14    29 ar  
    42    15    29 ar  
    43    15    30 ar  
    44    15    60 1   
    45    16    30 ar  
    46    16    31 1   
    47    17    18 ar  
    48    17    32 2   
    49    17    61 1   
    50    18    19 ar  
    51    18    25 ar  
    52    19    20 ar  
    53    19    22 ar  
    54    20    21 ar  
    55    20    62 1   
    56    21    32 1   
    57    21    63 1   
    58    22    23 ar  
    59    22    26 1   
    60    23    24 ar  
    61    23    64 1   
    62    24    25 ar  
    63    24    65 1   
    64    25    66 1   
    65    31    67 1   
    66    31    68 1   
    67    33    45 1   
    68    34    45 1   
    69    34    46 1   
    70    35    46 1   
    71    37    69 1   
    72    38    70 1   
    73    39    46 1   
    74    40    45 1   
    75    41    45 1   
    76    43    71 1   
    77    44    72 1   
@<TRIPOS>SUBSTRUCTURE
     1 1QD         1 TEMP              0 ****  ****    0 ROOT
