@<TRIPOS>MOLECULE
1QD
   72    77     1     0     0
SMALL
abcg2


@<TRIPOS>ATOM
      1 O10        -35.9310    30.0950     7.3300 o          1 1QD      -0.830500
      2 C13        -34.7280    30.5090    10.3910 c5         1 1QD       0.119300
      3 C15        -33.1390    29.6850    11.9450 c5         1 1QD       0.084300
      4 C16        -32.9420    31.1930    11.7330 c5         1 1QD       0.279300
      5 C19        -34.3710    32.5140    13.3750 cc         1 1QD       0.423700
      6 C01        -31.5770    32.6390     7.7960 c5         1 1QD       0.268300
      7 C02        -31.8280    31.1370     7.9290 c5         1 1QD       0.082300
      8 C03        -31.5420    30.7020     6.4840 c5         1 1QD       0.117300
      9 C04        -32.1710    31.8500     5.7040 c5         1 1QD       0.159300
     10 C05        -33.6190    31.5410     5.3600 c3         1 1QD       0.197600
     11 C12        -36.1270    31.0410    10.1780 c3         1 1QD       0.235600
     12 C14        -34.6100    29.5250    11.5490 c5         1 1QD       0.147300
     13 C21        -32.9150    33.1000    14.7860 ca         1 1QD      -0.091600
     14 C22        -32.2380    32.3630    13.8280 ca         1 1QD       0.109500
     15 C24        -30.3050    32.6620    14.8230 ca         1 1QD       0.175900
     16 C26        -32.1320    33.6460    15.8190 ca         1 1QD       0.451900
     17 C37        -33.5020    33.8130     8.7350 ca         1 1QD       0.140700
     18 C38        -34.1130    34.6010     9.7180 ca         1 1QD      -0.095000
     19 C39        -33.3610    34.9970    10.8560 ca         1 1QD       0.042000
     20 C40        -32.0330    34.5210    10.9430 ca         1 1QD      -0.114000
     21 C41        -31.5070    33.7660     9.9490 ca         1 1QD      -0.113000
     22 C42        -33.9900    35.8390    11.8010 ca         1 1QD       0.165000
     23 C43        -35.2970    36.2190    11.6260 ca         1 1QD      -0.015000
     24 C44        -36.0320    35.7970    10.5020 ca         1 1QD      -0.130000
     25 C45        -35.4540    35.0060     9.5530 ca         1 1QD       0.030000
     26 I46        -32.9530    36.5810    13.4690 i          1 1QD      -0.307000
     27 N18        -33.1900    31.9850    12.9250 na         1 1QD      -0.301300
     28 N20        -34.2480    33.1820    14.4830 nd         1 1QD      -0.560100
     29 N23        -30.9310    32.1080    13.7990 nb         1 1QD      -0.235000
     30 N25        -30.8180    33.3970    15.8070 nb         1 1QD      -0.308000
     31 N27        -32.6460    34.3960    16.7940 nv         1 1QD      -1.064900
     32 N36        -32.2430    33.4420     8.8480 na         1 1QD       0.035300
     33 O06        -34.2870    32.7310     5.0140 os         1 1QD      -0.591400
     34 O08        -36.0650    32.6410     6.8040 os         1 1QD      -0.741800
     35 O11        -36.1910    31.9390     9.0950 os         1 1QD      -0.596400
     36 O17        -33.8360    31.5750    10.7310 os         1 1QD      -0.461000
     37 O28        -32.3370    28.9560    11.0460 oh         1 1QD      -0.699000
     38 O29        -35.0000    28.2520    11.1450 oh         1 1QD      -0.659000
     39 O30        -38.1760    31.3830     7.5580 o          1 1QD      -0.830500
     40 O31        -36.2670    34.2360     4.8470 o          1 1QD      -0.818000
     41 O32        -36.5760    31.6620     4.4840 o          1 1QD      -0.818000
     42 O33        -32.0730    33.0030     6.5620 os         1 1QD      -0.423000
     43 O34        -30.1630    30.6690     6.2330 oh         1 1QD      -0.720000
     44 O35        -31.0000    30.5620     8.8870 oh         1 1QD      -0.741000
     45 P07        -35.9230    32.8210     5.1650 p5         1 1QD       1.445800
     46 P09        -36.6840    31.3580     7.6280 p5         1 1QD       1.441800
     47 H131       -34.3890    30.0290     9.4660 h1         1 1QD       0.119700
     48 H151       -32.9430    29.3900    12.9800 h1         1 1QD       0.060700
     49 H161       -31.9100    31.4040    11.4390 h2         1 1QD       0.094700
     50 H2         -35.2980    32.3890    12.8370 h5         1 1QD       0.087800
     51 H011       -30.5100    32.8660     7.9000 h2         1 1QD       0.085700
     52 H021       -32.8900    30.9750     8.1450 h1         1 1QD       0.106700
     53 H031       -32.0240    29.7440     6.2510 h1         1 1QD       0.090700
     54 H041       -31.6060    32.0750     4.7960 h1         1 1QD       0.096700
     55 H3         -33.6140    30.8320     4.5240 h1         1 1QD       0.052200
     56 H4         -34.1050    31.0330     6.1970 h1         1 1QD       0.052200
     57 H5         -36.4640    31.5740    11.0730 h1         1 1QD       0.032200
     58 H6         -36.7990    30.1830    10.0560 h1         1 1QD       0.032200
     59 H141       -35.2190    29.8860    12.3920 h1         1 1QD       0.038700
     60 H7         -29.2340    32.5010    14.8720 h5         1 1QD       0.042100
     61 H8         -34.0410    33.5150     7.8460 h4         1 1QD       0.248000
     62 H9         -31.3990    34.7580    11.7850 ha         1 1QD       0.153000
     63 H10        -30.4890    33.4100     9.9730 h4         1 1QD       0.164000
     64 H11        -35.7830    36.8600    12.3490 ha         1 1QD       0.129000
     65 H12        -37.0590    36.1190    10.3990 ha         1 1QD       0.144000
     66 H13        -36.0010    34.6870     8.6770 ha         1 1QD       0.204000
     67 H14        -32.0460    34.8100    17.4860 hn         1 1QD       0.506000
     68 H15        -33.6190    34.6470    16.7970 hn         1 1QD       0.506000
     69 H16        -31.4970    28.7600    11.4750 ho         1 1QD       0.509000
     70 H17        -35.0780    27.6890    11.9220 ho         1 1QD       0.501000
     71 H19        -29.7540    30.0850     6.8810 ho         1 1QD       0.514000
     72 H20        -31.5080    29.9500     9.4380 ho         1 1QD       0.544000
@<TRIPOS>BOND
     1     1    46 1   
     2     2    11 1   
     3     2    12 1   
     4     2    36 1   
     5     2    47 1   
     6     3     4 1   
     7     3    12 1   
     8     3    37 1   
     9     3    48 1   
    10     4    27 1   
    11     4    36 1   
    12     4    49 1   
    13     5    27 1   
    14     5    28 2   
    15     5    50 1   
    16     6     7 1   
    17     6    32 1   
    18     6    42 1   
    19     6    51 1   
    20     7     8 1   
    21     7    44 1   
    22     7    52 1   
    23     8     9 1   
    24     8    43 1   
    25     8    53 1   
    26     9    10 1   
    27     9    42 1   
    28     9    54 1   
    29    10    33 1   
    30    10    55 1   
    31    10    56 1   
    32    11    35 1   
    33    11    57 1   
    34    11    58 1   
    35    12    38 1   
    36    12    59 1   
    37    13    14 ar  
    38    13    16 ar  
    39    13    28 1   
    40    14    27 1   
    41    14    29 ar  
    42    15    29 ar  
    43    15    30 ar  
    44    15    60 1   
    45    16    30 ar  
    46    16    31 1   
    47    17    18 ar  
    48    17    32 2   
    49    17    61 1   
    50    18    19 ar  
    51    18    25 ar  
    52    19    20 ar  
    53    19    22 ar  
    54    20    21 ar  
    55    20    62 1   
    56    21    32 1   
    57    21    63 1   
    58    22    23 ar  
    59    22    26 1   
    60    23    24 ar  
    61    23    64 1   
    62    24    25 ar  
    63    24    65 1   
    64    25    66 1   
    65    31    67 1   
    66    31    68 1   
    67    33    45 1   
    68    34    45 1   
    69    34    46 1   
    70    35    46 1   
    71    37    69 1   
    72    38    70 1   
    73    39    46 1   
    74    40    45 1   
    75    41    45 1   
    76    43    71 1   
    77    44    72 1   
@<TRIPOS>SUBSTRUCTURE
     1 1QD         1 TEMP              0 ****  ****    0 ROOT
