@<TRIPOS>MOLECULE
1QE
   52    55     1     0     0
SMALL
No Charge or Current Charge


@<TRIPOS>ATOM
      1 N08          6.4360    -1.9440     1.4480 n2         1 1QE      -0.814600
      2 C06          6.3990    -0.9250     0.6920 ce         1 1QE       0.710300
      3 C05          7.6060    -0.1720     0.3900 cc         1 1QE      -0.316400
      4 S01          7.5880     1.2010    -0.7210 ss         1 1QE       0.225000
      5 C02          9.3170     1.4540    -0.5140 cc         1 1QE      -0.235000
      6 C03          9.8460     0.5280     0.3460 cd         1 1QE      -0.137500
      7 C04          8.8860    -0.3880     0.8520 cd         1 1QE      -0.086500
      8 N07          5.1990    -0.4710     0.2040 nu         1 1QE      -0.942200
      9 C11          3.9900    -1.1060    -0.0830 ca         1 1QE       0.302500
     10 C16          2.8360    -0.3160    -0.2110 ca         1 1QE      -0.166000
     11 C12          3.8980    -2.4970    -0.2820 ca         1 1QE      -0.141000
     12 C13          2.6590    -3.0900    -0.5790 ca         1 1QE      -0.082000
     13 C14          1.5070    -2.2940    -0.6880 ca         1 1QE      -0.135500
     14 C15          1.5900    -0.9010    -0.5100 ca         1 1QE      -0.050300
     15 C17          0.3440    -0.0350    -0.6290 c3         1 1QE      -0.030600
     16 C37         -0.3560     0.1680     0.7300 c3         1 1QE      -0.030600
     17 C35         -1.6020     1.0340     0.6100 ca         1 1QE      -0.050300
     18 C34         -1.5190     2.4270     0.7860 ca         1 1QE      -0.135500
     19 C33         -2.6710     3.2220     0.6770 ca         1 1QE      -0.082000
     20 C32         -3.9100     2.6280     0.3830 ca         1 1QE      -0.141000
     21 C36         -2.8480     0.4480     0.3140 ca         1 1QE      -0.166000
     22 C31         -4.0060     1.2360     0.1870 ca         1 1QE       0.302500
     23 N27         -5.2120     0.5870    -0.0910 nu         1 1QE      -0.942200
     24 C26         -6.4320     1.0220    -0.5610 ce         1 1QE       0.710300
     25 N28         -6.5680     2.1450    -1.1430 n2         1 1QE      -0.814600
     26 C25         -7.5680     0.1150    -0.4580 cc         1 1QE      -0.316400
     27 S21         -7.4500    -1.4060     0.4360 ss         1 1QE       0.225000
     28 C22         -9.1270    -1.8020     0.0870 cc         1 1QE      -0.235000
     29 C23         -9.7160    -0.8160    -0.6580 cd         1 1QE      -0.137500
     30 C24         -8.8440     0.2630    -0.9630 cd         1 1QE      -0.086500
     31 H1           5.4580    -2.2050     1.6060 hn         1 1QE       0.392400
     32 H2           9.8080     2.2610    -1.0430 h4         1 1QE       0.153500
     33 H3          10.8990     0.4960     0.6140 ha         1 1QE       0.139000
     34 H4           9.1420    -1.1870     1.5430 ha         1 1QE       0.146500
     35 H5           5.2120     0.5220     0.0030 hn         1 1QE       0.490000
     36 H6           2.9010     0.7590    -0.0680 ha         1 1QE       0.109000
     37 H7           4.7820    -3.1240    -0.2310 ha         1 1QE       0.140500
     38 H8           2.5930    -4.1660    -0.7320 ha         1 1QE       0.113500
     39 H9           0.5510    -2.7600    -0.9170 ha         1 1QE       0.112500
     40 H10          0.6040     0.9450    -1.0480 hc         1 1QE       0.051950
     41 H11         -0.3660    -0.4880    -1.3330 hc         1 1QE       0.051950
     42 H12         -0.6160    -0.8120     1.1490 hc         1 1QE       0.051950
     43 H13          0.3540     0.6220     1.4330 hc         1 1QE       0.051950
     44 H14         -0.5630     2.8940     1.0120 ha         1 1QE       0.112500
     45 H15         -2.6050     4.2980     0.8240 ha         1 1QE       0.113500
     46 H16         -4.7910     3.2570     0.3230 ha         1 1QE       0.140500
     47 H17         -2.9120    -0.6270     0.1750 ha         1 1QE       0.109000
     48 H18         -5.1840    -0.4160     0.0340 hn         1 1QE       0.490000
     49 H19         -7.5550     2.2300    -1.4070 hn         1 1QE       0.392400
     50 H20         -9.5480    -2.7280     0.4590 h4         1 1QE       0.153500
     51 H21        -10.7520    -0.8550    -0.9840 ha         1 1QE       0.139000
     52 H22         -9.1700     1.1190    -1.5470 ha         1 1QE       0.146500
@<TRIPOS>BOND
     1     1     2 2   
     2     1    31 1   
     3     2     3 1   
     4     2     8 1   
     5     3     4 1   
     6     3     7 2   
     7     4     5 1   
     8     5     6 2   
     9     5    32 1   
    10     6     7 1   
    11     6    33 1   
    12     7    34 1   
    13     8     9 1   
    14     8    35 1   
    15     9    10 ar  
    16     9    11 ar  
    17    10    14 ar  
    18    10    36 1   
    19    11    12 ar  
    20    11    37 1   
    21    12    13 ar  
    22    12    38 1   
    23    13    14 ar  
    24    13    39 1   
    25    14    15 1   
    26    15    16 1   
    27    15    40 1   
    28    15    41 1   
    29    16    17 1   
    30    16    42 1   
    31    16    43 1   
    32    17    18 ar  
    33    17    21 ar  
    34    18    19 ar  
    35    18    44 1   
    36    19    20 ar  
    37    19    45 1   
    38    20    22 ar  
    39    20    46 1   
    40    21    22 ar  
    41    21    47 1   
    42    22    23 1   
    43    23    24 1   
    44    23    48 1   
    45    24    25 2   
    46    24    26 1   
    47    25    49 1   
    48    26    27 1   
    49    26    30 2   
    50    27    28 1   
    51    28    29 2   
    52    28    50 1   
    53    29    30 1   
    54    29    51 1   
    55    30    52 1   
@<TRIPOS>SUBSTRUCTURE
     1 1QE         1 TEMP              0 ****  ****    0 ROOT
