@<TRIPOS>MOLECULE
1QE
   52    55     1     0     0
SMALL
abcg2


@<TRIPOS>ATOM
      1 N08          5.9850    -1.9420     1.4550 n2         1 1QE      -0.814600
      2 C06          6.0930    -0.9980     0.6090 ce         1 1QE       0.710300
      3 C05          7.3640    -0.2620     0.5390 cc         1 1QE      -0.316400
      4 S01          7.9000     0.5090    -0.9070 ss         1 1QE       0.225000
      5 C02          9.3380     1.0480    -0.1550 cc         1 1QE      -0.235000
      6 C03          9.4070     0.6480     1.1470 cd         1 1QE      -0.137500
      7 C04          8.2770    -0.1080     1.5440 cd         1 1QE      -0.086500
      8 N07          5.1480    -0.5570    -0.2980 nu         1 1QE      -0.942200
      9 C11          3.8970    -1.1500    -0.5110 ca         1 1QE       0.302500
     10 C16          2.7710    -0.3370    -0.6150 ca         1 1QE      -0.166000
     11 C12          3.7640    -2.5290    -0.6740 ca         1 1QE      -0.141000
     12 C13          2.5100    -3.0690    -0.9170 ca         1 1QE      -0.082000
     13 C14          1.3920    -2.2540    -1.0180 ca         1 1QE      -0.135500
     14 C15          1.5160    -0.8740    -0.8770 ca         1 1QE      -0.050300
     15 C17          0.3100     0.0200    -0.9400 c3         1 1QE      -0.030600
     16 C37         -0.2340     0.3340     0.4620 c3         1 1QE      -0.030600
     17 C35         -1.4680     1.1900     0.4070 ca         1 1QE      -0.050300
     18 C34         -1.3880     2.5790     0.4980 ca         1 1QE      -0.135500
     19 C33         -2.5430     3.3400     0.4120 ca         1 1QE      -0.082000
     20 C32         -3.7900     2.7540     0.2320 ca         1 1QE      -0.141000
     21 C36         -2.7110     0.6020     0.2300 ca         1 1QE      -0.166000
     22 C31         -3.8820     1.3640     0.1440 ca         1 1QE       0.302500
     23 N27         -5.0700     0.6540    -0.0080 nu         1 1QE      -0.942200
     24 C26         -6.3580     1.1050    -0.1190 ce         1 1QE       0.710300
     25 N28         -6.6530     2.3410    -0.2380 n2         1 1QE      -0.814600
     26 C25         -7.3660     0.0250    -0.0940 cc         1 1QE      -0.316400
     27 S21         -7.1800    -1.3910     0.8740 ss         1 1QE       0.225000
     28 C22         -8.6880    -2.0110     0.3620 cc         1 1QE      -0.235000
     29 C23         -9.3110    -1.1680    -0.5090 cd         1 1QE      -0.137500
     30 C24         -8.5530     0.0010    -0.7690 cd         1 1QE      -0.086500
     31 H1           5.0480    -2.3330     1.4760 hn         1 1QE       0.392400
     32 H2          10.0580     1.6260    -0.7130 h4         1 1QE       0.153500
     33 H3          10.2340     0.8880     1.8000 ha         1 1QE       0.139000
     34 H4           8.1320    -0.5140     2.5340 ha         1 1QE       0.146500
     35 H5           5.1970     0.4230    -0.5360 hn         1 1QE       0.490000
     36 H6           2.8790     0.7360    -0.4940 ha         1 1QE       0.109000
     37 H7           4.6300    -3.1770    -0.6380 ha         1 1QE       0.140500
     38 H8           2.4110    -4.1390    -1.0420 ha         1 1QE       0.113500
     39 H9           0.4200    -2.6900    -1.2180 ha         1 1QE       0.112500
     40 H10          0.5620     0.9550    -1.4460 hc         1 1QE       0.051950
     41 H11         -0.4760    -0.4600    -1.5290 hc         1 1QE       0.051950
     42 H12         -0.4560    -0.6050     0.9750 hc         1 1QE       0.051950
     43 H13          0.5420     0.8380     1.0440 hc         1 1QE       0.051950
     44 H14         -0.4280     3.0590     0.6440 ha         1 1QE       0.112500
     45 H15         -2.4810     4.4180     0.4830 ha         1 1QE       0.113500
     46 H16         -4.6740     3.3650     0.1590 ha         1 1QE       0.140500
     47 H17         -2.7790    -0.4800     0.1690 ha         1 1QE       0.109000
     48 H18         -4.9420    -0.3390    -0.1200 hn         1 1QE       0.490000
     49 H19         -7.6590     2.4620    -0.2380 hn         1 1QE       0.392400
     50 H20         -9.0390    -2.9600     0.7360 h4         1 1QE       0.153500
     51 H21        -10.2740    -1.3750    -0.9520 ha         1 1QE       0.139000
     52 H22         -8.8690     0.7850    -1.4440 ha         1 1QE       0.146500
@<TRIPOS>BOND
     1     1     2 2   
     2     1    31 1   
     3     2     3 1   
     4     2     8 1   
     5     3     4 1   
     6     3     7 2   
     7     4     5 1   
     8     5     6 2   
     9     5    32 1   
    10     6     7 1   
    11     6    33 1   
    12     7    34 1   
    13     8     9 1   
    14     8    35 1   
    15     9    10 ar  
    16     9    11 ar  
    17    10    14 ar  
    18    10    36 1   
    19    11    12 ar  
    20    11    37 1   
    21    12    13 ar  
    22    12    38 1   
    23    13    14 ar  
    24    13    39 1   
    25    14    15 1   
    26    15    16 1   
    27    15    40 1   
    28    15    41 1   
    29    16    17 1   
    30    16    42 1   
    31    16    43 1   
    32    17    18 ar  
    33    17    21 ar  
    34    18    19 ar  
    35    18    44 1   
    36    19    20 ar  
    37    19    45 1   
    38    20    22 ar  
    39    20    46 1   
    40    21    22 ar  
    41    21    47 1   
    42    22    23 1   
    43    23    24 1   
    44    23    48 1   
    45    24    25 2   
    46    24    26 1   
    47    25    49 1   
    48    26    27 1   
    49    26    30 2   
    50    27    28 1   
    51    28    29 2   
    52    28    50 1   
    53    29    30 1   
    54    29    51 1   
    55    30    52 1   
@<TRIPOS>SUBSTRUCTURE
     1 1QE         1 TEMP              0 ****  ****    0 ROOT
