@<TRIPOS>MOLECULE
1QF
   63    66     1     0     0
SMALL
abcg2


@<TRIPOS>ATOM
      1 N06         -5.8110     0.5790     0.1890 n2         1 1QF      -0.805100
      2 C06         -5.2370    -0.5470     0.0350 ce         1 1QF       0.700800
      3 C05         -5.6180    -1.6550     0.9250 cc         1 1QF      -0.286900
      4 S01         -4.5350    -2.9460     1.2960 ss         1 1QF       0.217000
      5 C02         -5.6840    -3.6910     2.3180 cc         1 1QF      -0.237000
      6 C03         -6.8450    -2.9790     2.3790 cd         1 1QF      -0.141000
      7 C04         -6.8060    -1.8080     1.5820 cd         1 1QF      -0.075000
      8 N07         -4.2590    -0.8850    -0.8800 nu         1 1QF      -0.963200
      9 C11         -3.6490     0.0080    -1.7720 ca         1 1QF       0.279000
     10 C16         -3.1780     1.2470    -1.3440 ca         1 1QF      -0.126000
     11 C12         -3.4700    -0.3750    -3.1000 ca         1 1QF      -0.158000
     12 C13         -2.8260     0.4780    -3.9810 ca         1 1QF      -0.083000
     13 C14         -2.3770     1.7220    -3.5570 ca         1 1QF      -0.133000
     14 C15         -2.5570     2.1140    -2.2360 ca         1 1QF      -0.059300
     15 C17         -2.1080     3.4770    -1.7710 c3         1 1QF       0.217100
     16 N18         -1.5650     3.4570    -0.4290 n3         1 1QF      -0.736600
     17 C19         -1.5650     4.7720     0.1910 c3         1 1QF       0.174800
     18 C20         -2.9390     5.2010     0.6760 c3         1 1QF      -0.092100
     19 C38         -0.2630     2.8170    -0.3870 c3         1 1QF       0.172800
     20 C37          0.0240     2.1610     0.9640 c3         1 1QF      -0.030100
     21 C34          1.3590     1.4730     0.9570 ca         1 1QF      -0.100300
     22 C35          1.4930     0.1880     0.4370 ca         1 1QF      -0.080000
     23 C33          2.5100     2.1140     1.4030 ca         1 1QF      -0.080000
     24 C32          3.7470     1.4900     1.3550 ca         1 1QF      -0.150500
     25 C31          3.8690     0.2040     0.8330 ca         1 1QF       0.283000
     26 C36          2.7250    -0.4420     0.3630 ca         1 1QF      -0.150500
     27 N27          5.1350    -0.3860     0.7420 nu         1 1QF      -0.965200
     28 C26          5.4340    -1.6900     1.0830 ce         1 1QF       0.703800
     29 N26          4.6700    -2.5530     1.6260 n2         1 1QF      -0.807100
     30 C25          6.8090    -2.0870     0.7440 cc         1 1QF      -0.286900
     31 S21          7.6950    -1.3260    -0.5250 ss         1 1QF       0.215000
     32 C22          9.0510    -2.3320    -0.2600 cc         1 1QF      -0.236000
     33 C23          8.8320    -3.2190     0.7520 cd         1 1QF      -0.140000
     34 C24          7.5440    -3.0810     1.3260 cd         1 1QF      -0.074000
     35 H1          -5.5270     1.2510    -0.5170 hn         1 1QF       0.391400
     36 H2          -5.4420    -4.6130     2.8250 h4         1 1QF       0.151000
     37 H3          -7.6980    -3.2800     2.9700 ha         1 1QF       0.137000
     38 H4          -7.6230    -1.1090     1.4840 ha         1 1QF       0.152000
     39 H5          -4.2570    -1.8490    -1.1790 hn         1 1QF       0.486000
     40 H6          -3.2550     1.5420    -0.3050 ha         1 1QF       0.144000
     41 H7          -3.8320    -1.3390    -3.4390 ha         1 1QF       0.113000
     42 H8          -2.6790     0.1720    -5.0090 ha         1 1QF       0.114000
     43 H9          -1.8760     2.3840    -4.2530 ha         1 1QF       0.113000
     44 H10         -1.4000     3.9000    -2.5020 h1         1 1QF       0.040700
     45 H11         -2.9780     4.1390    -1.7850 h1         1 1QF       0.040700
     46 H13         -0.8950     4.7420     1.0530 h1         1 1QF       0.028700
     47 H14         -1.1450     5.5350    -0.4850 h1         1 1QF       0.028700
     48 H15         -2.8810     6.1790     1.1560 hc         1 1QF       0.038700
     49 H16         -3.6640     5.2820    -0.1330 hc         1 1QF       0.038700
     50 H17         -3.3280     4.4880     1.4040 hc         1 1QF       0.038700
     51 H18         -0.2340     2.0350    -1.1510 h1         1 1QF       0.037200
     52 H19          0.5470     3.5210    -0.6380 h1         1 1QF       0.037200
     53 H20         -0.0070     2.9050     1.7640 hc         1 1QF       0.055700
     54 H21         -0.7720     1.4410     1.1690 hc         1 1QF       0.055700
     55 H22          0.6170    -0.3340     0.0690 ha         1 1QF       0.115500
     56 H23          2.4430     3.1170     1.8090 ha         1 1QF       0.115500
     57 H24          4.6270     2.0050     1.7240 ha         1 1QF       0.120000
     58 H25          2.7930    -1.4270    -0.0800 ha         1 1QF       0.120000
     59 H26          5.9090     0.2620     0.7570 hn         1 1QF       0.488000
     60 H27          3.7710    -2.1590     1.8870 hn         1 1QF       0.390400
     61 H28          9.9350    -2.2200    -0.8670 h4         1 1QF       0.151000
     62 H29          9.5650    -3.9420     1.0780 ha         1 1QF       0.138000
     63 H30          7.1730    -3.6800     2.1440 ha         1 1QF       0.152000
@<TRIPOS>BOND
     1     1     2 2   
     2     1    35 1   
     3     2     3 1   
     4     2     8 1   
     5     3     4 1   
     6     3     7 2   
     7     4     5 1   
     8     5     6 2   
     9     5    36 1   
    10     6     7 1   
    11     6    37 1   
    12     7    38 1   
    13     8     9 1   
    14     8    39 1   
    15     9    10 ar  
    16     9    11 ar  
    17    10    14 ar  
    18    10    40 1   
    19    11    12 ar  
    20    11    41 1   
    21    12    13 ar  
    22    12    42 1   
    23    13    14 ar  
    24    13    43 1   
    25    14    15 1   
    26    15    16 1   
    27    15    44 1   
    28    15    45 1   
    29    16    17 1   
    30    16    19 1   
    31    17    18 1   
    32    17    46 1   
    33    17    47 1   
    34    18    48 1   
    35    18    49 1   
    36    18    50 1   
    37    19    20 1   
    38    19    51 1   
    39    19    52 1   
    40    20    21 1   
    41    20    53 1   
    42    20    54 1   
    43    21    22 ar  
    44    21    23 ar  
    45    22    26 ar  
    46    22    55 1   
    47    23    24 ar  
    48    23    56 1   
    49    24    25 ar  
    50    24    57 1   
    51    25    26 ar  
    52    25    27 1   
    53    26    58 1   
    54    27    28 1   
    55    27    59 1   
    56    28    29 2   
    57    28    30 1   
    58    29    60 1   
    59    30    31 1   
    60    30    34 2   
    61    31    32 1   
    62    32    33 2   
    63    32    61 1   
    64    33    34 1   
    65    33    62 1   
    66    34    63 1   
@<TRIPOS>SUBSTRUCTURE
     1 1QF         1 TEMP              0 ****  ****    0 ROOT
