@<TRIPOS>MOLECULE
1QF
   63    66     1     0     0
SMALL
No Charge or Current Charge


@<TRIPOS>ATOM
      1 N06         -5.8500     0.0650    -0.1370 n2         1 1QF      -0.805100
      2 C06         -5.0860    -0.9470    -0.1910 ce         1 1QF       0.700800
      3 C05         -5.2450    -2.0590     0.7340 cc         1 1QF      -0.286900
      4 S01         -4.1440    -3.4400     0.7210 ss         1 1QF       0.217000
      5 C02         -5.0040    -4.2000     2.0550 cc         1 1QF      -0.237000
      6 C03         -6.0520    -3.4200     2.4670 cd         1 1QF      -0.141000
      7 C04         -6.1870    -2.2160     1.7270 cd         1 1QF      -0.075000
      8 N07         -4.1370    -1.0370    -1.1800 nu         1 1QF      -0.963200
      9 C11         -3.4180    -0.0760    -1.8960 ca         1 1QF       0.279000
     10 C16         -3.2730     1.2500    -1.4440 ca         1 1QF      -0.126000
     11 C12         -2.7900    -0.4660    -3.0890 ca         1 1QF      -0.158000
     12 C13         -2.0440     0.4600    -3.8380 ca         1 1QF      -0.083000
     13 C14         -1.9140     1.7830    -3.3890 ca         1 1QF      -0.133000
     14 C15         -2.5250     2.1860    -2.1850 ca         1 1QF      -0.059300
     15 C17         -2.3650     3.6170    -1.6740 c3         1 1QF       0.217100
     16 N18         -1.7600     3.7080    -0.3140 n3         1 1QF      -0.736600
     17 C19         -1.7740     5.0920     0.2380 c3         1 1QF       0.174800
     18 C20         -3.1760     5.7150     0.4060 c3         1 1QF      -0.092100
     19 C38         -0.4110     3.0720    -0.2610 c3         1 1QF       0.172800
     20 C37          0.1630     2.8500     1.1580 c3         1 1QF      -0.030100
     21 C34          1.4080     1.9730     1.1340 ca         1 1QF      -0.100300
     22 C35          1.2860     0.5710     1.1220 ca         1 1QF      -0.080000
     23 C33          2.6890     2.5530     1.1040 ca         1 1QF      -0.080000
     24 C32          3.8350     1.7380     1.0720 ca         1 1QF      -0.150500
     25 C31          3.7170     0.3390     1.0800 ca         1 1QF       0.283000
     26 C36          2.4340    -0.2410     1.0920 ca         1 1QF      -0.150500
     27 N27          4.8840    -0.4280     1.0390 nu         1 1QF      -0.965200
     28 C26          5.1540    -1.7380     1.3510 ce         1 1QF       0.703800
     29 N26          4.4380    -2.3470     2.2050 n2         1 1QF      -0.807100
     30 C25          6.3180    -2.3770     0.7550 cc         1 1QF      -0.286900
     31 S21          7.2880    -1.5710    -0.4810 ss         1 1QF       0.215000
     32 C22          8.3610    -2.9590    -0.6140 cc         1 1QF      -0.236000
     33 C23          7.9720    -3.9590     0.2370 cd         1 1QF      -0.140000
     34 C24          6.8230    -3.6340     1.0050 cd         1 1QF      -0.074000
     35 H1          -5.6060     0.6340    -0.9530 hn         1 1QF       0.391400
     36 H2          -4.6690    -5.1580     2.4330 h4         1 1QF       0.151000
     37 H3          -6.7160    -3.6960     3.2820 ha         1 1QF       0.137000
     38 H4          -6.9650    -1.4840     1.9280 ha         1 1QF       0.152000
     39 H5          -3.9010    -1.9960    -1.4060 hn         1 1QF       0.486000
     40 H6          -3.7100     1.5600    -0.5000 ha         1 1QF       0.144000
     41 H7          -2.8830    -1.4880    -3.4450 ha         1 1QF       0.113000
     42 H8          -1.5650     0.1500    -4.7650 ha         1 1QF       0.114000
     43 H9          -1.3310     2.4930    -3.9710 ha         1 1QF       0.113000
     44 H10         -1.7590     4.1910    -2.3890 h1         1 1QF       0.040700
     45 H11         -3.3670     4.0630    -1.6790 h1         1 1QF       0.040700
     46 H13         -1.3180     5.0980     1.2360 h1         1 1QF       0.028700
     47 H14         -1.1680     5.7560    -0.3930 h1         1 1QF       0.028700
     48 H15         -3.1030     6.6540     0.9670 hc         1 1QF       0.038700
     49 H16         -3.6340     5.9430    -0.5630 hc         1 1QF       0.038700
     50 H17         -3.8370     5.0370     0.9600 hc         1 1QF       0.038700
     51 H18         -0.4510     2.0820    -0.7340 h1         1 1QF       0.037200
     52 H19          0.3090     3.6670    -0.8410 h1         1 1QF       0.037200
     53 H20          0.3990     3.8150     1.6210 hc         1 1QF       0.055700
     54 H21         -0.6090     2.3850     1.7830 hc         1 1QF       0.055700
     55 H22          0.3010     0.1090     1.1270 ha         1 1QF       0.115500
     56 H23          2.8000     3.6360     1.1020 ha         1 1QF       0.115500
     57 H24          4.8170     2.2010     1.0510 ha         1 1QF       0.120000
     58 H25          2.3110    -1.3190     1.0530 ha         1 1QF       0.120000
     59 H26          5.7030     0.0670     0.7050 hn         1 1QF       0.488000
     60 H27          3.7600    -1.6530     2.5340 hn         1 1QF       0.390400
     61 H28          9.1910    -2.9300    -1.3090 h4         1 1QF       0.151000
     62 H29          8.4920    -4.9100     0.3170 ha         1 1QF       0.138000
     63 H30          6.3830    -4.3190     1.7260 ha         1 1QF       0.152000
@<TRIPOS>BOND
     1     1     2 2   
     2     1    35 1   
     3     2     3 1   
     4     2     8 1   
     5     3     4 1   
     6     3     7 2   
     7     4     5 1   
     8     5     6 2   
     9     5    36 1   
    10     6     7 1   
    11     6    37 1   
    12     7    38 1   
    13     8     9 1   
    14     8    39 1   
    15     9    10 ar  
    16     9    11 ar  
    17    10    14 ar  
    18    10    40 1   
    19    11    12 ar  
    20    11    41 1   
    21    12    13 ar  
    22    12    42 1   
    23    13    14 ar  
    24    13    43 1   
    25    14    15 1   
    26    15    16 1   
    27    15    44 1   
    28    15    45 1   
    29    16    17 1   
    30    16    19 1   
    31    17    18 1   
    32    17    46 1   
    33    17    47 1   
    34    18    48 1   
    35    18    49 1   
    36    18    50 1   
    37    19    20 1   
    38    19    51 1   
    39    19    52 1   
    40    20    21 1   
    41    20    53 1   
    42    20    54 1   
    43    21    22 ar  
    44    21    23 ar  
    45    22    26 ar  
    46    22    55 1   
    47    23    24 ar  
    48    23    56 1   
    49    24    25 ar  
    50    24    57 1   
    51    25    26 ar  
    52    25    27 1   
    53    26    58 1   
    54    27    28 1   
    55    27    59 1   
    56    28    29 2   
    57    28    30 1   
    58    29    60 1   
    59    30    31 1   
    60    30    34 2   
    61    31    32 1   
    62    32    33 2   
    63    32    61 1   
    64    33    34 1   
    65    33    62 1   
    66    34    63 1   
@<TRIPOS>SUBSTRUCTURE
     1 1QF         1 TEMP              0 ****  ****    0 ROOT
