@<TRIPOS>MOLECULE
1QG
   44    47     1     0     0
SMALL
No Charge or Current Charge


@<TRIPOS>ATOM
      1 N3          -2.2270     1.2150     1.0070 nb         1 1QG      -0.679000
      2 C4           2.4970    -1.1490    -0.0090 cc         1 1QG       0.328500
      3 N2           3.1470    -2.2910    -0.1590 nd         1 1QG      -0.517800
      4 C7           5.3220     1.3660     0.3560 ca         1 1QG      -0.158000
      5 C6           4.5940     0.1630     0.3880 ca         1 1QG      -0.061500
      6 C9           3.3770     2.5210    -0.5250 ca         1 1QG      -0.158000
      7 C13         -0.9870     1.4490     1.4890 ca         1 1QG       0.342900
      8 C8           4.7090     2.5430    -0.0920 ca         1 1QG       0.176000
      9 C18         -6.6960     0.4040    -0.2960 c6         1 1QG       0.112600
     10 C16         -3.8260    -0.0930    -0.3530 c6         1 1QG       0.081200
     11 C19         -5.8170     0.8900    -1.4870 c6         1 1QG       0.114800
     12 N1           2.1350    -3.2290    -0.2760 na         1 1QG       0.143800
     13 C2           0.8640    -2.6630    -0.1960 cd         1 1QG      -0.150000
     14 C3           1.0890    -1.3260    -0.0460 cc         1 1QG      -0.162000
     15 C5           3.2320     0.1300     0.0010 ca         1 1QG      -0.139500
     16 C10          2.6470     1.3200    -0.4930 ca         1 1QG      -0.061500
     17 C11         -0.0350    -0.4430     0.2980 ca         1 1QG       0.053000
     18 C12          0.1210     0.6510     1.1690 ca         1 1QG      -0.156000
     19 C14         -2.3940     0.1510     0.1810 ca         1 1QG       0.354300
     20 C15         -1.3320    -0.6960    -0.1860 ca         1 1QG      -0.156000
     21 C17         -4.7730    -0.5540     0.8020 c6         1 1QG       0.119600
     22 O1          -6.1140    -0.7760     0.3040 os         1 1QG      -0.447000
     23 N4          -4.3940     1.0960    -1.0850 n7         1 1QG      -0.838400
     24 H7           6.3610     1.3840     0.6740 ha         1 1QG       0.133000
     25 H6           5.0890    -0.7410     0.7360 ha         1 1QG       0.126500
     26 H8           2.9160     3.4310    -0.9000 ha         1 1QG       0.133000
     27 H11         -0.8820     2.2980     2.1640 h4         1 1QG       0.020100
     28 H15         -6.7780     1.1950     0.4630 h1         1 1QG       0.049200
     29 H16         -7.7080     0.1650    -0.6520 h1         1 1QG       0.049200
     30 H1          -3.7700    -0.9290    -1.0670 h1         1 1QG       0.074700
     31 H17         -5.8640     0.1380    -2.2890 h1         1 1QG       0.061200
     32 H18         -6.2300     1.8260    -1.8930 h1         1 1QG       0.061200
     33 H3           2.8840    -5.0410     0.4880 h1         1 1QG       0.059700
     34 H4           1.5290    -5.2110    -0.6670 h1         1 1QG       0.059700
     35 H2           3.1600    -4.7830    -1.2610 h1         1 1QG       0.059700
     36 H5          -0.0470    -3.2510    -0.2010 h4         1 1QG       0.158000
     37 H9           1.6330     1.3180    -0.8850 ha         1 1QG       0.126500
     38 H10          1.0800     0.8750     1.6240 ha         1 1QG       0.132000
     39 H12         -1.5200    -1.5270    -0.8590 ha         1 1QG       0.123000
     40 H14         -4.3960    -1.4880     1.2430 h1         1 1QG       0.053700
     41 H13         -4.8050     0.2060     1.5960 h1         1 1QG       0.053700
     42 H19         -4.3430     1.8980    -0.4400 hn         1 1QG       0.428000
     43 F1           5.4110     3.6970    -0.1280 f          1 1QG      -0.179000
     44 C1           2.4460    -4.6550    -0.4390 c3         1 1QG       0.071900
@<TRIPOS>BOND
     1     1     7 ar  
     2     1    19 ar  
     3     2     3 2   
     4     2    14 1   
     5     2    15 1   
     6     3    12 1   
     7     4     5 ar  
     8     4     8 ar  
     9     4    24 1   
    10     5    15 ar  
    11     5    25 1   
    12     6     8 ar  
    13     6    16 ar  
    14     6    26 1   
    15     7    18 ar  
    16     7    27 1   
    17     8    43 1   
    18     9    11 1   
    19     9    22 1   
    20     9    28 1   
    21     9    29 1   
    22    10    19 1   
    23    10    21 1   
    24    10    23 1   
    25    10    30 1   
    26    11    23 1   
    27    11    31 1   
    28    11    32 1   
    29    12    13 1   
    30    12    44 1   
    31    13    14 2   
    32    13    36 1   
    33    14    17 1   
    34    15    16 ar  
    35    16    37 1   
    36    17    18 ar  
    37    17    20 ar  
    38    18    38 1   
    39    19    20 ar  
    40    20    39 1   
    41    21    22 1   
    42    21    40 1   
    43    21    41 1   
    44    23    42 1   
    45    33    44 1   
    46    34    44 1   
    47    35    44 1   
@<TRIPOS>SUBSTRUCTURE
     1 1QG         1 TEMP              0 ****  ****    0 ROOT
