@<TRIPOS>MOLECULE
1QG
   44    47     1     0     0
SMALL
abcg2


@<TRIPOS>ATOM
      1 N3          -2.2150     1.2870     0.8850 nb         1 1QG      -0.679000
      2 C4           2.3950    -1.1550    -0.0610 cc         1 1QG       0.328500
      3 N2           3.0380    -2.3000    -0.2260 nd         1 1QG      -0.517800
      4 C7           5.1020     1.3940     0.5070 ca         1 1QG      -0.158000
      5 C6           4.3770     0.2130     0.5450 ca         1 1QG      -0.061500
      6 C9           3.3480     2.4110    -0.8100 ca         1 1QG      -0.158000
      7 C13         -1.0190     1.4740     1.4300 ca         1 1QG       0.342900
      8 C8           4.5710     2.4750    -0.1690 ca         1 1QG       0.176000
      9 C18         -6.5450     0.3330    -0.2240 c6         1 1QG       0.112600
     10 C16         -3.7510     0.0330    -0.4920 c6         1 1QG       0.081200
     11 C19         -5.7530     1.1040    -1.2660 c6         1 1QG       0.114800
     12 N1           2.1120    -3.2490    -0.1870 na         1 1QG       0.143800
     13 C2           0.8810    -2.7550    -0.0150 cd         1 1QG      -0.150000
     14 C3           1.0040    -1.3820     0.0850 cc         1 1QG      -0.162000
     15 C5           3.1360     0.1110    -0.0850 ca         1 1QG      -0.139500
     16 C10          2.6380     1.2220    -0.7650 ca         1 1QG      -0.061500
     17 C11         -0.0850    -0.4460     0.3500 ca         1 1QG       0.053000
     18 C12          0.0660     0.6450     1.2060 ca         1 1QG      -0.156000
     19 C14         -2.3720     0.2490     0.0690 ca         1 1QG       0.354300
     20 C15         -1.3400    -0.6320    -0.2250 ca         1 1QG      -0.156000
     21 C17         -4.6060    -0.7220     0.5340 c6         1 1QG       0.119600
     22 O1          -5.9230    -0.9030     0.0680 os         1 1QG      -0.447000
     23 N4          -4.3610     1.2960    -0.8860 n7         1 1QG      -0.838400
     24 H7           6.0610     1.4720     1.0020 ha         1 1QG       0.133000
     25 H6           4.7790    -0.6360     1.0800 ha         1 1QG       0.126500
     26 H8           2.9590     3.2680    -1.3430 ha         1 1QG       0.133000
     27 H11         -0.9180     2.3270     2.0920 h4         1 1QG       0.020100
     28 H15         -6.6340     0.9390     0.6910 h1         1 1QG       0.049200
     29 H16         -7.5540     0.1130    -0.5790 h1         1 1QG       0.049200
     30 H1          -3.6740    -0.5950    -1.3870 h1         1 1QG       0.074700
     31 H17         -5.7810     0.5640    -2.2180 h1         1 1QG       0.061200
     32 H18         -6.2140     2.0790    -1.4380 h1         1 1QG       0.061200
     33 H3           3.2360    -4.9090     0.3850 h1         1 1QG       0.059700
     34 H4           1.6080    -5.2550    -0.2190 h1         1 1QG       0.059700
     35 H2           2.8890    -4.7990    -1.3520 h1         1 1QG       0.059700
     36 H5           0.0140    -3.3920     0.0580 h4         1 1QG       0.158000
     37 H9           1.6890     1.1610    -1.2820 ha         1 1QG       0.126500
     38 H10          1.0060     0.8450     1.7020 ha         1 1QG       0.132000
     39 H12         -1.5130    -1.4480    -0.9160 ha         1 1QG       0.123000
     40 H14         -4.1910    -1.7140     0.7290 h1         1 1QG       0.053700
     41 H13         -4.6040    -0.1620     1.4820 h1         1 1QG       0.053700
     42 H19         -4.3080     1.9340    -0.0990 hn         1 1QG       0.428000
     43 F1           5.2650     3.6230    -0.2080 f          1 1QG      -0.179000
     44 C1           2.4880    -4.6330    -0.3540 c3         1 1QG       0.071900
@<TRIPOS>BOND
     1     1     7 ar  
     2     1    19 ar  
     3     2     3 2   
     4     2    14 1   
     5     2    15 1   
     6     3    12 1   
     7     4     5 ar  
     8     4     8 ar  
     9     4    24 1   
    10     5    15 ar  
    11     5    25 1   
    12     6     8 ar  
    13     6    16 ar  
    14     6    26 1   
    15     7    18 ar  
    16     7    27 1   
    17     8    43 1   
    18     9    11 1   
    19     9    22 1   
    20     9    28 1   
    21     9    29 1   
    22    10    19 1   
    23    10    21 1   
    24    10    23 1   
    25    10    30 1   
    26    11    23 1   
    27    11    31 1   
    28    11    32 1   
    29    12    13 1   
    30    12    44 1   
    31    13    14 2   
    32    13    36 1   
    33    14    17 1   
    34    15    16 ar  
    35    16    37 1   
    36    17    18 ar  
    37    17    20 ar  
    38    18    38 1   
    39    19    20 ar  
    40    20    39 1   
    41    21    22 1   
    42    21    40 1   
    43    21    41 1   
    44    23    42 1   
    45    33    44 1   
    46    34    44 1   
    47    35    44 1   
@<TRIPOS>SUBSTRUCTURE
     1 1QG         1 TEMP              0 ****  ****    0 ROOT
