@<TRIPOS>MOLECULE
1QI
   41    41     1     0     0
SMALL
abcg2


@<TRIPOS>ATOM
      1 C1         133.6020   -24.2030    86.3710 c3         1 1QI      -0.017100
      2 C2         134.3660   -23.6400    85.1610 c3         1 1QI      -0.178700
      3 C3         134.9650   -22.2580    85.4840 c3         1 1QI      -0.044400
      4 C4         136.4040   -22.2820    85.9840 c3         1 1QI       0.131300
      5 C5         136.9230   -20.8900    86.4050 c3         1 1QI       0.132500
      6 O1         136.4910   -23.1780    87.0800 oh         1 1QI      -0.655000
      7 C8         133.0680   -25.5900    86.1470 ca         1 1QI      -0.035300
      8 C9         133.8680   -26.7040    86.3980 ca         1 1QI      -0.097500
      9 C10        133.3920   -27.9910    86.1840 ca         1 1QI      -0.123000
     10 C11        132.1010   -28.1870    85.7110 ca         1 1QI      -0.135000
     11 C12        131.2950   -27.0860    85.4530 ca         1 1QI      -0.123000
     12 C13        131.7760   -25.8010    85.6700 ca         1 1QI      -0.097500
     13 C14        133.4190   -23.5440    83.9440 c          1 1QI       0.713000
     14 C34        136.8120   -19.8210    85.3040 c3         1 1QI      -0.047700
     15 C35        137.1410   -18.4330    85.8470 c3         1 1QI      -0.082100
     16 C36        137.6650   -20.1280    84.0740 c3         1 1QI      -0.082100
     17 N1         138.2840   -20.9260    86.9310 n8         1 1QI      -1.016200
     18 H1         134.2610   -24.2100    87.2400 hc         1 1QI       0.038700
     19 H3         135.1790   -24.3320    84.9150 hc         1 1QI       0.038700
     20 H4         134.9500   -21.6410    84.5840 hc         1 1QI       0.047700
     21 H5         134.3290   -21.7360    86.2090 hc         1 1QI       0.047700
     22 H6         137.0370   -22.6550    85.1630 h1         1 1QI       0.025700
     23 H7         136.2800   -20.5570    87.2300 h1         1 1QI       0.061700
     24 H8         137.4160   -23.4000    87.2170 ho         1 1QI       0.413000
     25 H9         134.8750   -26.5610    86.7730 ha         1 1QI       0.117500
     26 H10        134.0290   -28.8430    86.3920 ha         1 1QI       0.091000
     27 H11        131.7260   -29.1890    85.5470 ha         1 1QI       0.088000
     28 H12        130.2860   -27.2270    85.0850 ha         1 1QI       0.091000
     29 H13        131.1420   -24.9480    85.4630 ha         1 1QI       0.117500
     30 H15        135.7670   -19.7930    84.9820 hc         1 1QI       0.062700
     31 H16        136.5280   -18.1910    86.7170 hc         1 1QI       0.028700
     32 H17        138.1860   -18.3570    86.1450 hc         1 1QI       0.028700
     33 H18        136.9520   -17.6700    85.0890 hc         1 1QI       0.028700
     34 H19        137.3970   -21.0780    83.6080 hc         1 1QI       0.028700
     35 H20        137.5370   -19.3510    83.3190 hc         1 1QI       0.028700
     36 H21        138.7290   -20.1650    84.3180 hc         1 1QI       0.028700
     37 H2         138.3130   -21.4290    87.8080 hn         1 1QI       0.387500
     38 H          138.9010   -21.4200    86.2970 hn         1 1QI       0.387500
     39 OXY        133.7080   -24.2140    82.9320 o          1 1QI      -0.734000
     40 H14        132.7790   -23.5240    86.6050 hc         1 1QI       0.038700
     41 O          132.4330   -22.7870    84.0760 o          1 1QI      -0.734000
@<TRIPOS>BOND
     1     1     2 1   
     2     1     7 1   
     3     1    18 1   
     4     1    40 1   
     5     2     3 1   
     6     2    13 1   
     7     2    19 1   
     8     3     4 1   
     9     3    20 1   
    10     3    21 1   
    11     4     5 1   
    12     4     6 1   
    13     4    22 1   
    14     5    14 1   
    15     5    17 1   
    16     5    23 1   
    17     6    24 1   
    18     7     8 ar  
    19     7    12 ar  
    20     8     9 ar  
    21     8    25 1   
    22     9    10 ar  
    23     9    26 1   
    24    10    11 ar  
    25    10    27 1   
    26    11    12 ar  
    27    11    28 1   
    28    12    29 1   
    29    13    39 1   
    30    13    41 1   
    31    14    15 1   
    32    14    16 1   
    33    14    30 1   
    34    15    31 1   
    35    15    32 1   
    36    15    33 1   
    37    16    34 1   
    38    16    35 1   
    39    16    36 1   
    40    17    37 1   
    41    17    38 1   
@<TRIPOS>SUBSTRUCTURE
     1 1QI         1 TEMP              0 ****  ****    0 ROOT
