@<TRIPOS>MOLECULE
1QI
   41    41     1     0     0
SMALL
No Charge or Current Charge


@<TRIPOS>ATOM
      1 C1         133.5100   -24.2340    86.4520 c3         1 1QI      -0.017100
      2 C2         134.2460   -23.5600    85.2580 c3         1 1QI      -0.178700
      3 C3         134.8470   -22.1590    85.6050 c3         1 1QI      -0.044400
      4 C4         136.3110   -22.1570    86.1410 c3         1 1QI       0.131300
      5 C5         136.8760   -20.7190    86.4540 c3         1 1QI       0.132500
      6 O1         136.4030   -22.9670    87.3260 oh         1 1QI      -0.655000
      7 C8         133.0760   -25.6640    86.1480 ca         1 1QI      -0.035300
      8 C9         134.0230   -26.7080    86.1470 ca         1 1QI      -0.097500
      9 C10        133.6240   -28.0280    85.8700 ca         1 1QI      -0.123000
     10 C11        132.2770   -28.3120    85.5930 ca         1 1QI      -0.135000
     11 C12        131.3280   -27.2770    85.5930 ca         1 1QI      -0.123000
     12 C13        131.7260   -25.9570    85.8690 ca         1 1QI      -0.097500
     13 C14        133.3070   -23.4550    84.0310 c          1 1QI       0.713000
     14 C34        136.9720   -19.7500    85.2250 c3         1 1QI      -0.047700
     15 C35        137.3760   -18.3130    85.6410 c3         1 1QI      -0.082100
     16 C36        137.8850   -20.2700    84.0840 c3         1 1QI      -0.082100
     17 N1         138.1800   -20.8320    87.1550 n8         1 1QI      -1.016200
     18 H1         134.1540   -24.2450    87.3370 hc         1 1QI       0.038700
     19 H3         135.0800   -24.2110    84.9670 hc         1 1QI       0.038700
     20 H4         134.8350   -21.5640    84.6850 hc         1 1QI       0.047700
     21 H5         134.1900   -21.6360    86.3110 hc         1 1QI       0.047700
     22 H6         136.9430   -22.6090    85.3660 h1         1 1QI       0.025700
     23 H7         136.1720   -20.2660    87.1680 h1         1 1QI       0.061700
     24 H8         136.0200   -23.8390    87.0980 ho         1 1QI       0.413000
     25 H9         135.0680   -26.4970    86.3600 ha         1 1QI       0.117500
     26 H10        134.3600   -28.8290    85.8710 ha         1 1QI       0.091000
     27 H11        131.9690   -29.3330    85.3790 ha         1 1QI       0.088000
     28 H12        130.2850   -27.4950    85.3780 ha         1 1QI       0.091000
     29 H13        130.9850   -25.1610    85.8650 ha         1 1QI       0.117500
     30 H15        135.9650   -19.6540    84.8040 hc         1 1QI       0.062700
     31 H16        136.7130   -17.9370    86.4290 hc         1 1QI       0.028700
     32 H17        138.4070   -18.2780    86.0120 hc         1 1QI       0.028700
     33 H18        137.3020   -17.6290    84.7860 hc         1 1QI       0.028700
     34 H19        137.5220   -21.2250    83.6880 hc         1 1QI       0.028700
     35 H20        137.9010   -19.5560    83.2510 hc         1 1QI       0.028700
     36 H21        138.9170   -20.4070    84.4290 hc         1 1QI       0.028700
     37 H2         138.0940   -21.6610    87.7570 hn         1 1QI       0.387500
     38 H          138.8870   -21.1170    86.4710 hn         1 1QI       0.387500
     39 OXY        133.6280   -24.0430    83.0090 o          1 1QI      -0.734000
     40 H14        132.6420   -23.6250    86.7320 hc         1 1QI       0.038700
     41 O          132.3050   -22.7610    84.1180 o          1 1QI      -0.734000
@<TRIPOS>BOND
     1     1     2 1   
     2     1     7 1   
     3     1    18 1   
     4     1    40 1   
     5     2     3 1   
     6     2    13 1   
     7     2    19 1   
     8     3     4 1   
     9     3    20 1   
    10     3    21 1   
    11     4     5 1   
    12     4     6 1   
    13     4    22 1   
    14     5    14 1   
    15     5    17 1   
    16     5    23 1   
    17     6    24 1   
    18     7     8 ar  
    19     7    12 ar  
    20     8     9 ar  
    21     8    25 1   
    22     9    10 ar  
    23     9    26 1   
    24    10    11 ar  
    25    10    27 1   
    26    11    12 ar  
    27    11    28 1   
    28    12    29 1   
    29    13    39 1   
    30    13    41 1   
    31    14    15 1   
    32    14    16 1   
    33    14    30 1   
    34    15    31 1   
    35    15    32 1   
    36    15    33 1   
    37    16    34 1   
    38    16    35 1   
    39    16    36 1   
    40    17    37 1   
    41    17    38 1   
@<TRIPOS>SUBSTRUCTURE
     1 1QI         1 TEMP              0 ****  ****    0 ROOT
