@<TRIPOS>MOLECULE
1QJ
   32    34     1     0     0
SMALL
bcc


@<TRIPOS>ATOM
      1 N3          -2.8350     2.0610     0.9640 nb         1 1QJ      -0.682000
      2 C4           4.1650     0.0400     0.4090 ca         1 1QJ      -0.176000
      3 N2           1.1070    -2.9040    -0.2410 nc         1 1QJ      -0.514800
      4 C7           0.8240    -1.6230    -0.0700 cd         1 1QJ       0.389800
      5 C6           1.8970    -0.6230    -0.1190 ca         1 1QJ      -0.138500
      6 C9          -1.0920    -2.7130     0.0270 cc         1 1QJ      -0.116300
      7 C13         -3.3040     1.1260     0.1410 ca         1 1QJ       0.407600
      8 C8          -0.5710    -1.4380     0.1120 cd         1 1QJ      -0.222300
      9 C1           1.7140     0.5930    -0.7780 ca         1 1QJ      -0.079000
     10 C2           2.7310     1.5320    -0.8420 ca         1 1QJ      -0.176000
     11 C3           3.9410     1.2370    -0.2430 ca         1 1QJ       0.140900
     12 C5           3.1350    -0.8860     0.4660 ca         1 1QJ      -0.079000
     13 N1          -0.0570    -3.5350    -0.1730 na         1 1QJ       0.005400
     14 C10         -1.3320    -0.2220     0.3960 ca         1 1QJ       0.041000
     15 C11         -0.8530     0.7590     1.2620 ca         1 1QJ      -0.240300
     16 C12         -1.6400     1.8710     1.5050 ca         1 1QJ       0.405200
     17 C14         -2.5900    -0.0220    -0.1710 ca         1 1QJ      -0.220300
     18 C15         -4.6680     1.4100    -0.4260 c3         1 1QJ       0.086100
     19 O1          -5.0410     0.4070    -1.3310 oh         1 1QJ      -0.602800
     20 F1           4.9310     2.1430    -0.2980 f          1 1QJ      -0.143900
     21 H6          -2.1020    -3.0770     0.1270 h4         1 1QJ       0.180000
     22 H2           0.7700     0.8140    -1.2590 ha         1 1QJ       0.144500
     23 H3           2.5860     2.4730    -1.3570 ha         1 1QJ       0.151000
     24 H5           3.2960    -1.8230     0.9830 ha         1 1QJ       0.144500
     25 H1          -0.0900    -4.5370    -0.2720 hn         1 1QJ       0.326700
     26 H7           0.1060     0.6590     1.7510 ha         1 1QJ       0.149000
     27 H8          -1.2850     2.6450     2.1770 h4         1 1QJ       0.019100
     28 H9          -2.9980    -0.7500    -0.8580 ha         1 1QJ       0.157000
     29 H10         -5.3730     1.4890     0.4120 h1         1 1QJ       0.041200
     30 H11         -4.6390     2.4010    -0.8970 h1         1 1QJ       0.041200
     31 H12         -5.9300     0.5980    -1.6410 ho         1 1QJ       0.412000
     32 H4           5.1210    -0.1650     0.8720 ha         1 1QJ       0.151000
@<TRIPOS>BOND
     1     1     7 ar  
     2     1    16 ar  
     3     2    11 ar  
     4     2    12 ar  
     5     2    32 1   
     6     3     4 2   
     7     3    13 1   
     8     4     5 1   
     9     4     8 1   
    10     5     9 ar  
    11     5    12 ar  
    12     6     8 2   
    13     6    13 1   
    14     6    21 1   
    15     7    17 ar  
    16     7    18 1   
    17     8    14 1   
    18     9    10 ar  
    19     9    22 1   
    20    10    11 ar  
    21    10    23 1   
    22    11    20 1   
    23    12    24 1   
    24    13    25 1   
    25    14    15 ar  
    26    14    17 ar  
    27    15    16 ar  
    28    15    26 1   
    29    16    27 1   
    30    17    28 1   
    31    18    19 1   
    32    18    29 1   
    33    18    30 1   
    34    19    31 1   
@<TRIPOS>SUBSTRUCTURE
     1 1QJ         1 TEMP              0 ****  ****    0 ROOT
