@<TRIPOS>MOLECULE
1QJ
   32    34     1     0     0
SMALL
No Charge or Current Charge


@<TRIPOS>ATOM
      1 N3          -2.7840     2.1780     0.7540 nb         1 1QJ      -0.682000
      2 C4           4.1210     0.1000     0.7180 ca         1 1QJ      -0.158000
      3 N2           1.1660    -2.9430    -0.2220 nc         1 1QJ      -0.514800
      4 C7           0.8540    -1.6720    -0.0380 cd         1 1QJ       0.324500
      5 C6           1.9250    -0.6620    -0.0370 ca         1 1QJ      -0.138500
      6 C9          -1.1360    -2.6880    -0.1180 cc         1 1QJ      -0.149000
      7 C13         -3.3710     1.0800     0.2160 ca         1 1QJ       0.342300
      8 C8          -0.5530    -1.4650     0.0960 cd         1 1QJ      -0.157000
      9 C1           1.8460     0.4570    -0.8940 ca         1 1QJ      -0.061000
     10 C2           2.8850     1.4030    -0.9240 ca         1 1QJ      -0.158000
     11 C3           4.0170     1.2240    -0.1150 ca         1 1QJ       0.176000
     12 C5           3.0820    -0.8470     0.7500 ca         1 1QJ      -0.061000
     13 N1          -0.0670    -3.5640    -0.2700 na         1 1QJ       0.005800
     14 C10         -1.2990    -0.2060     0.3140 ca         1 1QJ       0.041000
     15 C11         -0.7090     0.9360     0.8890 ca         1 1QJ      -0.157000
     16 C12         -1.4760     2.0950     1.0840 ca         1 1QJ       0.339900
     17 C14         -2.6680    -0.1190    -0.0060 ca         1 1QJ      -0.137000
     18 C15         -4.8620     1.1860    -0.1420 c3         1 1QJ       0.109300
     19 O1          -5.0960     1.1150    -1.5660 oh         1 1QJ      -0.665000
     20 F1           5.0170     2.1320    -0.1470 f          1 1QJ      -0.179000
     21 H6          -2.1700    -3.0110    -0.1390 h4         1 1QJ       0.162000
     22 H2           0.9760     0.5930    -1.5350 ha         1 1QJ       0.126500
     23 H3           2.8180     2.2690    -1.5770 ha         1 1QJ       0.133000
     24 H5           3.1700    -1.7210     1.3940 ha         1 1QJ       0.126500
     25 H1          -0.1410    -4.5710    -0.4150 hn         1 1QJ       0.377000
     26 H7           0.3220     0.9370     1.2230 ha         1 1QJ       0.131000
     27 H8          -1.0320     2.9830     1.5310 h4         1 1QJ       0.019100
     28 H9          -3.1940    -0.9600    -0.4460 ha         1 1QJ       0.139000
     29 H10         -5.3950     0.3720     0.3670 h1         1 1QJ       0.041200
     30 H11         -5.2620     2.1280     0.2570 h1         1 1QJ       0.041200
     31 H12         -6.0640     1.2200    -1.7070 ho         1 1QJ       0.451000
     32 H4           5.0060    -0.0380     1.3330 ha         1 1QJ       0.133000
@<TRIPOS>BOND
     1     1     7 ar  
     2     1    16 ar  
     3     2    11 ar  
     4     2    12 ar  
     5     2    32 1   
     6     3     4 2   
     7     3    13 1   
     8     4     5 1   
     9     4     8 1   
    10     5     9 ar  
    11     5    12 ar  
    12     6     8 2   
    13     6    13 1   
    14     6    21 1   
    15     7    17 ar  
    16     7    18 1   
    17     8    14 1   
    18     9    10 ar  
    19     9    22 1   
    20    10    11 ar  
    21    10    23 1   
    22    11    20 1   
    23    12    24 1   
    24    13    25 1   
    25    14    15 ar  
    26    14    17 ar  
    27    15    16 ar  
    28    15    26 1   
    29    16    27 1   
    30    17    28 1   
    31    18    19 1   
    32    18    29 1   
    33    18    30 1   
    34    19    31 1   
@<TRIPOS>SUBSTRUCTURE
     1 1QJ         1 TEMP              0 ****  ****    0 ROOT
