@<TRIPOS>MOLECULE
1QK
   58    61     1     0     0
SMALL
No Charge or Current Charge


@<TRIPOS>ATOM
      1 C10          0.0800    -0.8600    -0.0470 cc         1 1QK      -0.332000
      2 N12         -2.1440     0.1400    -0.0950 nu         1 1QK      -0.982200
      3 C13         -2.9490    -1.0090     0.3370 c3         1 1QK       0.276100
      4 C15         -5.2710    -0.8300    -0.6890 ca         1 1QK       0.030000
      5 C17         -7.1070     0.1760     0.5600 ca         1 1QK       0.002700
      6 C22          2.1340    -2.9830    -0.9860 c6         1 1QK       0.202800
      7 C24          4.6750    -2.8800    -1.2690 c6         1 1QK      -0.076400
      8 C26          3.4960    -1.8880     0.7730 c6         1 1QK       0.226500
      9 C28          4.6410    -1.0650     2.9660 c3         1 1QK       0.163600
     10 C01          3.1420     3.2040    -3.1370 c3         1 1QK      -0.088100
     11 C02          2.8680     3.2120    -1.6230 c3         1 1QK       0.012800
     12 C03          1.5350     2.5990    -1.2760 cc         1 1QK      -0.289800
     13 C04          0.2810     3.2770    -1.3360 cc         1 1QK       0.422500
     14 N05         -0.7880     2.5600    -0.9880 nd         1 1QK      -0.644100
     15 N06         -0.1510     1.3580    -0.6910 na         1 1QK       0.056900
     16 C07          1.2140     1.3500    -0.8510 cd         1 1QK       0.449500
     17 N08          2.1400     0.3530    -0.6600 nd         1 1QK      -0.737000
     18 C09          1.4970    -0.7280    -0.2460 cc         1 1QK       0.658900
     19 C11         -0.7830     0.1900    -0.2660 cd         1 1QK       0.382000
     20 C14         -4.4130    -0.6050     0.4080 ca         1 1QK      -0.098300
     21 C16         -6.6220    -0.4360    -0.6130 ca         1 1QK      -0.112000
     22 N18         -6.2640     0.3870     1.6490 na         1 1QK       0.236300
     23 C19         -4.9250     0.0120     1.5700 ca         1 1QK      -0.054000
     24 O20         -6.7480     1.0050     2.7990 oh         1 1QK      -0.451000
     25 N21          2.2230    -1.8680    -0.0110 nh         1 1QK      -0.743300
     26 C23          3.3070    -2.8970    -1.9950 c6         1 1QK      -0.109400
     27 C25          4.7140    -1.7700    -0.1870 c6         1 1QK      -0.105400
     28 C27          3.5080    -0.8540     1.9430 c3         1 1QK      -0.074400
     29 O29          4.5080    -0.1240     4.0350 oh         1 1QK      -0.658000
     30 H1          -0.2960    -1.8170     0.2880 ha         1 1QK       0.128000
     31 H2          -2.6200     1.0200    -0.3120 hn         1 1QK       0.525000
     32 H3          -2.8290    -1.8490    -0.3630 h1         1 1QK       0.076200
     33 H4          -2.6190    -1.3590     1.3260 h1         1 1QK       0.076200
     34 H5          -4.8930    -1.2980    -1.5980 ha         1 1QK       0.187000
     35 H6          -8.1420     0.5040     0.6530 h4         1 1QK       0.203000
     36 H7           2.1730    -3.9490    -0.4600 h1         1 1QK       0.053200
     37 H8           1.1810    -2.9500    -1.5340 h1         1 1QK       0.053200
     38 H9           4.8540    -3.8570    -0.8000 hc         1 1QK       0.047200
     39 H10          5.4860    -2.7280    -1.9950 hc         1 1QK       0.047200
     40 H11          3.5650    -2.8750     1.2560 h1         1 1QK       0.048700
     41 H12          4.5900    -2.0900     3.3560 h1         1 1QK       0.014700
     42 H13          5.6130    -0.9370     2.4720 h1         1 1QK       0.014700
     43 H14          2.3740     3.7730    -3.6740 hc         1 1QK       0.035367
     44 H15          4.1180     3.6550    -3.3520 hc         1 1QK       0.035367
     45 H16          3.1450     2.1770    -3.5220 hc         1 1QK       0.035367
     46 H17          3.6760     2.6760    -1.1110 hc         1 1QK       0.050200
     47 H18          2.9060     4.2470    -1.2600 hc         1 1QK       0.050200
     48 H19          0.1270     4.3050    -1.6360 h4         1 1QK       0.049800
     49 H20         -7.2860    -0.5990    -1.4590 ha         1 1QK       0.189000
     50 H21         -4.2950     0.2250     2.4340 h4         1 1QK       0.201000
     51 H22         -7.0610     0.2690     3.3690 ho         1 1QK       0.501000
     52 H23          3.2610    -3.7450    -2.6910 hc         1 1QK       0.047200
     53 H24          3.2000    -1.9880    -2.6030 hc         1 1QK       0.047200
     54 H25          5.6540    -1.8480     0.3730 hc         1 1QK       0.062200
     55 H26          4.7190    -0.7820    -0.6680 hc         1 1QK       0.062200
     56 H27          3.5870     0.1660     1.5530 hc         1 1QK       0.074200
     57 H28          2.5540    -0.9120     2.4800 hc         1 1QK       0.074200
     58 H29          5.2470    -0.2950     4.6610 ho         1 1QK       0.447000
@<TRIPOS>BOND
     1     1    18 1   
     2     1    19 2   
     3     1    30 1   
     4     2     3 1   
     5     2    19 1   
     6     2    31 1   
     7     3    20 1   
     8     3    32 1   
     9     3    33 1   
    10     4    20 ar  
    11     4    21 ar  
    12     4    34 1   
    13     5    21 ar  
    14     5    22 2   
    15     5    35 1   
    16     6    25 1   
    17     6    26 1   
    18     6    36 1   
    19     6    37 1   
    20     7    26 1   
    21     7    27 1   
    22     7    38 1   
    23     7    39 1   
    24     8    25 1   
    25     8    27 1   
    26     8    28 1   
    27     8    40 1   
    28     9    28 1   
    29     9    29 1   
    30     9    41 1   
    31     9    42 1   
    32    10    11 1   
    33    10    43 1   
    34    10    44 1   
    35    10    45 1   
    36    11    12 1   
    37    11    46 1   
    38    11    47 1   
    39    12    13 1   
    40    12    16 2   
    41    13    14 2   
    42    13    48 1   
    43    14    15 1   
    44    15    16 1   
    45    15    19 1   
    46    16    17 1   
    47    17    18 2   
    48    18    25 1   
    49    20    23 ar  
    50    21    49 1   
    51    22    23 1   
    52    22    24 1   
    53    23    50 1   
    54    24    51 1   
    55    26    52 1   
    56    26    53 1   
    57    27    54 1   
    58    27    55 1   
    59    28    56 1   
    60    28    57 1   
    61    29    58 1   
@<TRIPOS>SUBSTRUCTURE
     1 1QK         1 TEMP              0 ****  ****    0 ROOT
