@<TRIPOS>MOLECULE
1QK
   58    61     1     0     0
SMALL
abcg2


@<TRIPOS>ATOM
      1 C10         -0.0110    -0.7040     0.5680 cc         1 1QK      -0.332000
      2 N12         -2.1230     0.5040     0.3700 nu         1 1QK      -0.982200
      3 C13         -2.9690    -0.5580     0.8460 c3         1 1QK       0.276100
      4 C15         -4.5410    -0.2830    -1.1140 ca         1 1QK       0.030000
      5 C17         -6.8970    -0.1740    -0.7650 ca         1 1QK       0.002700
      6 C22          1.6820    -3.0460     0.2680 c6         1 1QK       0.202800
      7 C24          3.4800    -3.1440    -1.4940 c6         1 1QK      -0.076400
      8 C26          3.6400    -1.6800     0.5310 c6         1 1QK       0.226500
      9 C28          5.7100    -0.9650     1.7440 c3         1 1QK       0.163600
     10 C01          3.5290     2.8350    -2.1200 c3         1 1QK      -0.088100
     11 C02          2.9280     3.4040    -0.8360 c3         1 1QK       0.012800
     12 C03          1.5660     2.8660    -0.5450 cc         1 1QK      -0.289800
     13 C04          0.3230     3.5060    -0.6150 cc         1 1QK       0.422500
     14 N05         -0.7020     2.7150    -0.3270 nd         1 1QK      -0.644100
     15 N06         -0.1200     1.5350    -0.0630 na         1 1QK       0.056900
     16 C07          1.2490     1.5620    -0.1780 cd         1 1QK       0.449500
     17 N08          2.0070     0.4810     0.0240 nd         1 1QK      -0.737000
     18 C09          1.4060    -0.6300     0.3960 cc         1 1QK       0.658900
     19 C11         -0.7820     0.4030     0.3090 cd         1 1QK       0.382000
     20 C14         -4.3450    -0.4150     0.2580 ca         1 1QK      -0.098300
     21 C16         -5.8220    -0.1640    -1.6250 ca         1 1QK      -0.112000
     22 N18         -6.6720    -0.3110     0.5430 na         1 1QK       0.236300
     23 C19         -5.4500    -0.4180     1.0790 ca         1 1QK      -0.054000
     24 O20         -7.7270    -0.2510     1.3860 oh         1 1QK      -0.451000
     25 N21          2.1770    -1.7310     0.6700 nh         1 1QK      -0.743300
     26 C23          1.9900    -3.3070    -1.2040 c6         1 1QK      -0.109400
     27 C25          4.0270    -1.8280    -0.9420 c6         1 1QK      -0.105400
     28 C27          4.3350    -0.5320     1.2630 c3         1 1QK      -0.074400
     29 O29          6.3440     0.1400     2.3510 oh         1 1QK      -0.658000
     30 H1          -0.4830    -1.5980     0.9400 ha         1 1QK       0.128000
     31 H2          -2.4890     1.4460     0.4070 hn         1 1QK       0.525000
     32 H3          -2.5630    -1.5170     0.5180 h1         1 1QK       0.076200
     33 H4          -3.0250    -0.5900     1.9380 h1         1 1QK       0.076200
     34 H5          -3.6920    -0.2710    -1.7840 ha         1 1QK       0.187000
     35 H6          -7.9260    -0.0800    -1.0800 h4         1 1QK       0.203000
     36 H7           2.1700    -3.7950     0.8970 h1         1 1QK       0.053200
     37 H8           0.6160    -3.1380     0.4590 h1         1 1QK       0.053200
     38 H9           4.0260    -3.9750    -1.0340 hc         1 1QK       0.047200
     39 H10          3.6630    -3.2120    -2.5690 hc         1 1QK       0.047200
     40 H11          3.9700    -2.5980     1.0350 h1         1 1QK       0.048700
     41 H12          5.6000    -1.8000     2.4500 h1         1 1QK       0.014700
     42 H13          6.3000    -1.3460     0.8990 h1         1 1QK       0.014700
     43 H14          2.9060     3.0760    -2.9830 hc         1 1QK       0.035367
     44 H15          4.5250     3.2400    -2.3020 hc         1 1QK       0.035367
     45 H16          3.6140     1.7500    -2.0590 hc         1 1QK       0.035367
     46 H17          3.6000     3.1870    -0.0010 hc         1 1QK       0.050200
     47 H18          2.8740     4.4920    -0.9060 hc         1 1QK       0.050200
     48 H19          0.1370     4.5400    -0.8710 h4         1 1QK       0.049800
     49 H20         -6.0000    -0.0600    -2.6840 ha         1 1QK       0.189000
     50 H21         -5.3990    -0.5000     2.1550 h4         1 1QK       0.201000
     51 H22         -8.0590    -1.1590     1.4840 ho         1 1QK       0.501000
     52 H23          1.6560    -4.3120    -1.4730 hc         1 1QK       0.047200
     53 H24          1.4110    -2.6090    -1.8160 hc         1 1QK       0.047200
     54 H25          5.1150    -1.8080    -1.0470 hc         1 1QK       0.062200
     55 H26          3.6350    -0.9750    -1.5020 hc         1 1QK       0.062200
     56 H27          4.4260     0.3400     0.6170 hc         1 1QK       0.074200
     57 H28          3.7400    -0.2300     2.1290 hc         1 1QK       0.074200
     58 H29          7.2080    -0.1420     2.6620 ho         1 1QK       0.447000
@<TRIPOS>BOND
     1     1    18 1   
     2     1    19 2   
     3     1    30 1   
     4     2     3 1   
     5     2    19 1   
     6     2    31 1   
     7     3    20 1   
     8     3    32 1   
     9     3    33 1   
    10     4    20 ar  
    11     4    21 ar  
    12     4    34 1   
    13     5    21 ar  
    14     5    22 2   
    15     5    35 1   
    16     6    25 1   
    17     6    26 1   
    18     6    36 1   
    19     6    37 1   
    20     7    26 1   
    21     7    27 1   
    22     7    38 1   
    23     7    39 1   
    24     8    25 1   
    25     8    27 1   
    26     8    28 1   
    27     8    40 1   
    28     9    28 1   
    29     9    29 1   
    30     9    41 1   
    31     9    42 1   
    32    10    11 1   
    33    10    43 1   
    34    10    44 1   
    35    10    45 1   
    36    11    12 1   
    37    11    46 1   
    38    11    47 1   
    39    12    13 1   
    40    12    16 2   
    41    13    14 2   
    42    13    48 1   
    43    14    15 1   
    44    15    16 1   
    45    15    19 1   
    46    16    17 1   
    47    17    18 2   
    48    18    25 1   
    49    20    23 ar  
    50    21    49 1   
    51    22    23 1   
    52    22    24 1   
    53    23    50 1   
    54    24    51 1   
    55    26    52 1   
    56    26    53 1   
    57    27    54 1   
    58    27    55 1   
    59    28    56 1   
    60    28    57 1   
    61    29    58 1   
@<TRIPOS>SUBSTRUCTURE
     1 1QK         1 TEMP              0 ****  ****    0 ROOT
