@<TRIPOS>MOLECULE
1QL
   46    47     1     0     0
SMALL
bcc


@<TRIPOS>ATOM
      1 C4           5.4330     1.0060    -0.2160 cc         1 1QL      -0.045400
      2 C2           3.1490    -0.0260     0.0010 c          1 1QL       0.673100
      3 N2          -1.4780    -1.3770     0.0990 nu         1 1QL      -0.743000
      4 C6           7.4950     1.0510    -1.2870 cd         1 1QL      -0.152000
      5 O6          -4.7700    -2.5470    -0.0770 o          1 1QL      -0.803300
      6 C5           6.1270     1.4380    -1.3060 cd         1 1QL      -0.148000
      7 C8          -0.5400    -0.3060     0.0990 c6         1 1QL       0.290600
      8 O5          -3.0390    -3.1150     1.2010 o          1 1QL      -0.803300
      9 C13         -2.8310    -1.1320    -0.0330 ce         1 1QL       0.083800
     10 C10         -3.3330     0.0310    -0.5000 c2         1 1QL      -0.281400
     11 C11         -4.7920     0.3190    -0.6410 c3         1 1QL       0.228600
     12 C9          -2.4610     1.1900    -0.9170 c6         1 1QL       0.087900
     13 S1          -0.7850     0.6980    -1.4020 ss         1 1QL      -0.365200
     14 C14          1.0980    -1.8360    -1.0110 c          1 1QL       0.624900
     15 O4           1.2300    -1.4430    -2.1350 o          1 1QL      -0.488100
     16 C1           0.8840    -0.8860     0.1790 c3         1 1QL       0.200200
     17 O            1.0220    -1.7110     1.3010 os         1 1QL      -0.398600
     18 C            0.9140    -1.0990     2.5730 c3         1 1QL       0.124700
     19 N            1.8210     0.1940     0.1450 ns         1 1QL      -0.586900
     20 O1           3.6050    -1.1380    -0.1800 o          1 1QL      -0.574100
     21 C3           3.9970     1.2300     0.0980 c3         1 1QL      -0.091100
     22 S            6.4570     0.1170     0.8440 ss         1 1QL      -0.061800
     23 C7           7.8160     0.3300    -0.1780 cc         1 1QL      -0.126100
     24 H1           8.2060     1.3000    -2.0620 ha         1 1QL       0.145000
     25 H3           5.6730     2.0170    -2.0990 ha         1 1QL       0.150000
     26 H4          -0.6890     0.3870     0.9410 h2         1 1QL       0.034700
     27 H5          -5.0270     0.5860    -1.6770 h1         1 1QL       0.072200
     28 H6          -5.4060    -0.5270    -0.3540 h1         1 1QL       0.072200
     29 H7          -2.8860     1.6750    -1.8000 h1         1 1QL       0.052700
     30 H8          -2.3950     1.9570    -0.1420 h1         1 1QL       0.052700
     31 H9           1.0810    -2.9070    -0.7500 h4         1 1QL       0.028200
     32 H10          1.6040    -0.2600     2.6880 h1         1 1QL       0.032033
     33 H11         -0.1010    -0.7530     2.7850 h1         1 1QL       0.032033
     34 H12          1.1740    -1.8610     3.3050 h1         1 1QL       0.032033
     35 H13          1.4900     1.1340     0.3050 hn         1 1QL       0.324500
     36 H14          3.8710     1.6420     1.1050 hc         1 1QL       0.067700
     37 H15          3.5940     1.9840    -0.5820 hc         1 1QL       0.067700
     38 H16          8.7730    -0.0910     0.0900 h4         1 1QL       0.161000
     39 O2          -5.0740     1.4540     0.2060 os         1 1QL      -0.452900
     40 C16         -6.2990     1.9760     0.1410 c          1 1QL       0.758100
     41 H17         -1.3110    -2.1340     0.7520 hn         1 1QL       0.464800
     42 O3          -7.1810     1.5560    -0.5830 o          1 1QL      -0.609000
     43 N1          -6.4240     3.0260     0.9710 nt         1 1QL      -0.686000
     44 H24         -5.6840     3.3040     1.5910 hn         1 1QL       0.314500
     45 H25         -7.3150     3.4800     1.0640 hn         1 1QL       0.314500
     46 C15         -3.6380    -2.3720     0.3990 c          1 1QL       0.926800
@<TRIPOS>BOND
     1     1     6 2   
     2     1    21 1   
     3     1    22 1   
     4     2    19 1   
     5     2    20 2   
     6     2    21 1   
     7     3     7 1   
     8     3     9 1   
     9     3    41 1   
    10     4     6 1   
    11     4    23 2   
    12     4    24 1   
    13     5    46 1   
    14     6    25 1   
    15     7    13 1   
    16     7    16 1   
    17     7    26 1   
    18     8    46 1   
    19     9    10 2   
    20     9    46 1   
    21    10    11 1   
    22    10    12 1   
    23    11    27 1   
    24    11    28 1   
    25    11    39 1   
    26    12    13 1   
    27    12    29 1   
    28    12    30 1   
    29    14    15 2   
    30    14    16 1   
    31    14    31 1   
    32    16    17 1   
    33    16    19 1   
    34    17    18 1   
    35    18    32 1   
    36    18    33 1   
    37    18    34 1   
    38    19    35 1   
    39    21    36 1   
    40    21    37 1   
    41    22    23 1   
    42    23    38 1   
    43    39    40 1   
    44    40    42 2   
    45    40    43 1   
    46    43    44 1   
    47    43    45 1   
@<TRIPOS>SUBSTRUCTURE
     1 1QL         1 TEMP              0 ****  ****    0 ROOT
