@<TRIPOS>MOLECULE
1QL
   46    47     1     0     0
SMALL
No Charge or Current Charge


@<TRIPOS>ATOM
      1 C4           5.2890     0.9080    -0.1590 cc         1 1QL      -0.190300
      2 C2           3.5070    -0.3680     1.1370 c          1 1QL       0.606100
      3 N2          -1.4010    -1.2580     0.3450 nu         1 1QL      -0.798200
      4 C6           6.1240     1.6190    -2.2220 cd         1 1QL      -0.134000
      5 O6          -4.9630    -1.8750     0.0610 o          1 1QL      -0.698000
      6 C5           5.2020     1.8380    -1.1650 cd         1 1QL      -0.130000
      7 C8          -0.2590    -0.3380     0.3540 c6         1 1QL       0.338500
      8 O5          -3.3870    -2.9200     1.0620 o          1 1QL      -0.698000
      9 C13         -2.7250    -0.9400    -0.0990 ce         1 1QL       0.083800
     10 C10         -2.9940     0.1950    -0.8180 c2         1 1QL      -0.281400
     11 C11         -4.3620     0.6560    -1.3020 c3         1 1QL       0.251800
     12 C9          -1.8990     1.1850    -1.1970 c6         1 1QL       0.135800
     13 S1          -0.2000     0.5060    -1.2710 ss         1 1QL      -0.461000
     14 C14          1.3990    -2.0890    -0.4590 c          1 1QL       0.624900
     15 O4           2.2600    -1.9580    -1.3310 o          1 1QL      -0.488100
     16 C1           1.1050    -1.0650     0.6920 c3         1 1QL       0.223400
     17 O            0.9220    -1.8110     1.9330 os         1 1QL      -0.445000
     18 C            0.6740    -1.0490     3.1350 c3         1 1QL       0.147900
     19 N            2.2080    -0.0800     0.7810 ns         1 1QL      -0.519900
     20 O1           3.8770    -1.4950     1.4330 o          1 1QL      -0.574100
     21 C3           4.4640     0.8310     1.1040 c3         1 1QL      -0.091100
     22 S            6.5430    -0.2830    -0.5130 ss         1 1QL       0.228000
     23 C7           6.9230     0.5210    -2.0330 cc         1 1QL      -0.253000
     24 H1           6.1900     2.2600    -3.0970 ha         1 1QL       0.127000
     25 H3           4.4950     2.6620    -1.1560 ha         1 1QL       0.132000
     26 H4          -0.4290     0.4540     1.0980 h2         1 1QL       0.034700
     27 H5          -4.2570     1.3310    -2.1630 h1         1 1QL       0.072200
     28 H6          -4.9680    -0.1900    -1.6510 h1         1 1QL       0.072200
     29 H7          -2.1040     1.6310    -2.1810 h1         1 1QL       0.052700
     30 H8          -1.8910     2.0050    -0.4640 h1         1 1QL       0.052700
     31 H9           0.7540    -2.9950    -0.4420 h4         1 1QL       0.028200
     32 H10          1.4890    -0.3430     3.3340 h1         1 1QL       0.032033
     33 H11         -0.2670    -0.4890     3.0690 h1         1 1QL       0.032033
     34 H12          0.5990    -1.7240     3.9980 h1         1 1QL       0.032033
     35 H13          2.0190     0.8720     0.4930 hn         1 1QL       0.324500
     36 H14          5.1430     0.7520     1.9610 hc         1 1QL       0.067700
     37 H15          3.8830     1.7570     1.1880 hc         1 1QL       0.067700
     38 H16          7.7030     0.1220    -2.6690 h4         1 1QL       0.143000
     39 O2          -4.9920     1.3440    -0.2090 os         1 1QL      -0.476100
     40 C16         -6.2360     1.8410    -0.4200 c          1 1QL       0.642100
     41 H17         -1.3650    -2.0570     0.9870 hn         1 1QL       0.520000
     42 O3          -6.8730     1.7830    -1.4560 o          1 1QL      -0.560000
     43 N1          -6.6770     2.4500     0.6880 nt         1 1QL      -0.619000
     44 H24         -6.0910     2.4650     1.5080 hn         1 1QL       0.314500
     45 H25         -7.5890     2.8810     0.6910 hn         1 1QL       0.314500
     46 C15         -3.7850    -1.9820     0.3730 c          1 1QL       0.716200
@<TRIPOS>BOND
     1     1     6 2   
     2     1    21 1   
     3     1    22 1   
     4     2    19 1   
     5     2    20 2   
     6     2    21 1   
     7     3     7 1   
     8     3     9 1   
     9     3    41 1   
    10     4     6 1   
    11     4    23 2   
    12     4    24 1   
    13     5    46 1   
    14     6    25 1   
    15     7    13 1   
    16     7    16 1   
    17     7    26 1   
    18     8    46 1   
    19     9    10 2   
    20     9    46 1   
    21    10    11 1   
    22    10    12 1   
    23    11    27 1   
    24    11    28 1   
    25    11    39 1   
    26    12    13 1   
    27    12    29 1   
    28    12    30 1   
    29    14    15 2   
    30    14    16 1   
    31    14    31 1   
    32    16    17 1   
    33    16    19 1   
    34    17    18 1   
    35    18    32 1   
    36    18    33 1   
    37    18    34 1   
    38    19    35 1   
    39    21    36 1   
    40    21    37 1   
    41    22    23 1   
    42    23    38 1   
    43    39    40 1   
    44    40    42 2   
    45    40    43 1   
    46    43    44 1   
    47    43    45 1   
@<TRIPOS>SUBSTRUCTURE
     1 1QL         1 TEMP              0 ****  ****    0 ROOT
