@<TRIPOS>MOLECULE
1QM
   41    44     1     0     0
SMALL
No Charge or Current Charge


@<TRIPOS>ATOM
      1 N3           1.2240    -3.5590     0.0660 na         1 1QM       0.140800
      2 C4           0.1210    -1.7930    -0.5920 cc         1 1QM      -0.153000
      3 N2           1.9780    -2.4920     0.5240 nd         1 1QM      -0.523800
      4 C7           2.8530     0.1700     1.2640 ca         1 1QM      -0.058000
      5 C6           1.8530    -0.0760     0.2920 ca         1 1QM      -0.122500
      6 C9           3.0350     2.4840     0.5450 ca         1 1QM       0.174000
      7 C13          1.6450    -4.9420     0.3240 c3         1 1QM       0.073900
      8 C8           3.4290     1.4450     1.3980 ca         1 1QM      -0.158500
      9 C18         -3.2950     2.0030    -0.1540 c3         1 1QM       0.110500
     10 C16         -1.7810     0.4130     2.1090 c3         1 1QM       0.125600
     11 C1          -1.0690    -1.0420    -1.0270 ca         1 1QM       0.024000
     12 C2          -1.7810    -1.4680    -2.1650 ca         1 1QM      -0.149000
     13 C3          -2.9190    -0.7650    -2.5830 ca         1 1QM       0.322900
     14 N1          -3.3870     0.3240    -1.9370 nb         1 1QM      -0.657000
     15 C5           1.2900    -1.4320     0.1310 cc         1 1QM       0.342500
     16 C10          2.0800     2.2510    -0.4520 ca         1 1QM      -0.158500
     17 C11          1.5010     0.9770    -0.5870 ca         1 1QM      -0.058000
     18 F1           3.5920     3.7080     0.6720 f          1 1QM      -0.182000
     19 C12          0.0750    -3.1560    -0.6120 cd         1 1QM      -0.157000
     20 C14         -2.7370     0.7330    -0.8170 ca         1 1QM       0.271300
     21 C15         -1.5880     0.0670    -0.3120 ca         1 1QM       0.077100
     22 O1          -1.0130     0.4300     0.8890 os         1 1QM      -0.341100
     23 N4          -3.7100     1.8360     1.2650 n7         1 1QM      -0.858400
     24 C17         -2.6080     1.7160     2.2540 c3         1 1QM       0.126800
     25 H8           2.6810    -5.0790    -0.0060 h1         1 1QM       0.058033
     26 H10          1.5730    -5.1520     1.3970 h1         1 1QM       0.058033
     27 H9           0.9960    -5.6350    -0.2250 h1         1 1QM       0.058033
     28 H4           4.1830     1.6270     2.1600 ha         1 1QM       0.130500
     29 H17         -2.5360     2.7930    -0.2410 h1         1 1QM       0.075200
     30 H16         -4.1570     2.3450    -0.7450 h1         1 1QM       0.075200
     31 H11         -2.4380    -0.4650     2.1500 h1         1 1QM       0.054200
     32 H12         -1.0970     0.3530     2.9650 h1         1 1QM       0.054200
     33 H1          -1.4470    -2.3240    -2.7440 ha         1 1QM       0.125000
     34 H2          -3.4670    -1.0750    -3.4720 h4         1 1QM       0.022100
     35 H5           1.7950     3.0540    -1.1270 ha         1 1QM       0.130500
     36 H6           0.7920     0.8120    -1.3930 ha         1 1QM       0.123000
     37 H7          -0.6680    -3.8500    -0.9860 h4         1 1QM       0.156000
     38 H13         -4.3310     1.0180     1.3400 hn         1 1QM       0.417000
     39 H14         -3.0240     1.7330     3.2710 h1         1 1QM       0.063200
     40 H15         -1.9250     2.5750     2.1800 h1         1 1QM       0.063200
     41 H3           3.1740    -0.6240     1.9360 ha         1 1QM       0.123000
@<TRIPOS>BOND
     1     1     3 1   
     2     1     7 1   
     3     1    19 1   
     4     2    11 1   
     5     2    15 1   
     6     2    19 2   
     7     3    15 2   
     8     4     5 ar  
     9     4     8 ar  
    10     4    41 1   
    11     5    15 1   
    12     5    17 ar  
    13     6     8 ar  
    14     6    16 ar  
    15     6    18 1   
    16     7    25 1   
    17     7    26 1   
    18     7    27 1   
    19     8    28 1   
    20     9    20 1   
    21     9    23 1   
    22     9    29 1   
    23     9    30 1   
    24    10    22 1   
    25    10    24 1   
    26    10    31 1   
    27    10    32 1   
    28    11    12 ar  
    29    11    21 ar  
    30    12    13 ar  
    31    12    33 1   
    32    13    14 ar  
    33    13    34 1   
    34    14    20 ar  
    35    16    17 ar  
    36    16    35 1   
    37    17    36 1   
    38    19    37 1   
    39    20    21 ar  
    40    21    22 1   
    41    23    24 1   
    42    23    38 1   
    43    24    39 1   
    44    24    40 1   
@<TRIPOS>SUBSTRUCTURE
     1 1QM         1 TEMP              0 ****  ****    0 ROOT
