@<TRIPOS>MOLECULE
1QM
   41    44     1     0     0
SMALL
abcg2


@<TRIPOS>ATOM
      1 N3           1.2110    -3.5380     0.1580 na         1 1QM       0.140800
      2 C4           0.0240    -1.8130    -0.4750 cc         1 1QM      -0.153000
      3 N2           1.9860    -2.4880     0.3990 nd         1 1QM      -0.523800
      4 C7           2.7370     0.2230     1.1840 ca         1 1QM      -0.058000
      5 C6           1.8720    -0.0860     0.1350 ca         1 1QM      -0.122500
      6 C9           3.0130     2.4280     0.3350 ca         1 1QM       0.174000
      7 C13          1.6820    -4.8690     0.4570 c3         1 1QM       0.073900
      8 C8           3.3120     1.4790     1.2930 ca         1 1QM      -0.158500
      9 C18         -3.2000     2.0220    -0.0090 c3         1 1QM       0.110500
     10 C16         -1.9100     0.2430     2.1100 c3         1 1QM       0.125600
     11 C1          -1.0840    -0.9980    -0.9730 ca         1 1QM       0.024000
     12 C2          -1.6790    -1.2670    -2.2040 ca         1 1QM      -0.149000
     13 C3          -2.7340    -0.4820    -2.6300 ca         1 1QM       0.322900
     14 N1          -3.2060     0.5420    -1.9290 nb         1 1QM      -0.657000
     15 C5           1.2890    -1.4260     0.0260 cc         1 1QM       0.342500
     16 C10          2.1680     2.1590    -0.7240 ca         1 1QM      -0.158500
     17 C11          1.6040     0.8960    -0.8190 ca         1 1QM      -0.058000
     18 F1           3.5620     3.6500     0.4330 f          1 1QM      -0.182000
     19 C12          0.0320    -3.1890    -0.3750 cd         1 1QM      -0.157000
     20 C14         -2.6550     0.8230    -0.7520 ca         1 1QM       0.271300
     21 C15         -1.6050     0.0620    -0.2300 ca         1 1QM       0.077100
     22 O1          -1.0560     0.3440     0.9720 os         1 1QM      -0.341100
     23 N4          -3.7370     1.7830     1.3150 n7         1 1QM      -0.858400
     24 C17         -2.7500     1.4890     2.3310 c3         1 1QM       0.126800
     25 H8           2.5500    -5.1120    -0.1530 h1         1 1QM       0.058033
     26 H10          1.9490    -4.9450     1.5080 h1         1 1QM       0.058033
     27 H9           0.8890    -5.5790     0.2410 h1         1 1QM       0.058033
     28 H4           3.9770     1.7150     2.1140 ha         1 1QM       0.130500
     29 H17         -2.4100     2.7750     0.0840 h1         1 1QM       0.075200
     30 H16         -3.9790     2.4590    -0.6360 h1         1 1QM       0.075200
     31 H11         -2.5510    -0.6410     2.0240 h1         1 1QM       0.054200
     32 H12         -1.2480     0.0920     2.9650 h1         1 1QM       0.054200
     33 H1          -1.3140    -2.0750    -2.8250 ha         1 1QM       0.125000
     34 H2          -3.2100    -0.6790    -3.5840 h4         1 1QM       0.022100
     35 H5           1.9590     2.9170    -1.4680 ha         1 1QM       0.130500
     36 H6           0.9590     0.6770    -1.6590 ha         1 1QM       0.123000
     37 H7          -0.7260    -3.9170    -0.6190 h4         1 1QM       0.156000
     38 H13         -4.4400     1.0550     1.2810 hn         1 1QM       0.417000
     39 H14         -3.2610     1.3790     3.2920 h1         1 1QM       0.063200
     40 H15         -2.0860     2.3530     2.4290 h1         1 1QM       0.063200
     41 H3           2.9580    -0.5250     1.9340 ha         1 1QM       0.123000
@<TRIPOS>BOND
     1     1     3 1   
     2     1     7 1   
     3     1    19 1   
     4     2    11 1   
     5     2    15 1   
     6     2    19 2   
     7     3    15 2   
     8     4     5 ar  
     9     4     8 ar  
    10     4    41 1   
    11     5    15 1   
    12     5    17 ar  
    13     6     8 ar  
    14     6    16 ar  
    15     6    18 1   
    16     7    25 1   
    17     7    26 1   
    18     7    27 1   
    19     8    28 1   
    20     9    20 1   
    21     9    23 1   
    22     9    29 1   
    23     9    30 1   
    24    10    22 1   
    25    10    24 1   
    26    10    31 1   
    27    10    32 1   
    28    11    12 ar  
    29    11    21 ar  
    30    12    13 ar  
    31    12    33 1   
    32    13    14 ar  
    33    13    34 1   
    34    14    20 ar  
    35    16    17 ar  
    36    16    35 1   
    37    17    36 1   
    38    19    37 1   
    39    20    21 ar  
    40    21    22 1   
    41    23    24 1   
    42    23    38 1   
    43    24    39 1   
    44    24    40 1   
@<TRIPOS>SUBSTRUCTURE
     1 1QM         1 TEMP              0 ****  ****    0 ROOT
