@<TRIPOS>MOLECULE
1QN
   39    41     1     0     0
SMALL
bcc


@<TRIPOS>ATOM
      1 N3           1.6050    -2.5530    -0.1090 nc         1 1QN      -0.519800
      2 C4           1.9850     0.9430    -0.8590 ca         1 1QN      -0.079500
      3 N2           0.4930    -3.2570     0.0600 na         1 1QN       0.120400
      4 C7          -0.9660     0.0070     0.4990 ca         1 1QN       0.044000
      5 C6           3.5450    -0.4030     0.3690 ca         1 1QN      -0.079500
      6 C9          -1.3660     2.1500     1.4770 ca         1 1QN       0.403200
      7 C13         -0.1370    -1.1690     0.2450 cd         1 1QN      -0.222300
      8 C8          -0.5110     1.0850     1.2570 ca         1 1QN      -0.241300
      9 C16          0.5310    -4.6980    -0.0110 c3         1 1QN       0.043600
     10 C1           4.5200     0.5700     0.2140 ca         1 1QN      -0.176000
     11 C2           4.2000     1.7230    -0.4770 ca         1 1QN       0.139900
     12 C3           2.9460     1.9280    -1.0210 ca         1 1QN      -0.176000
     13 C5           2.2650    -0.2300    -0.1580 ca         1 1QN      -0.136500
     14 N1          -2.6110     2.2070     1.0190 nb         1 1QN      -0.681000
     15 C10         -3.0600     1.1810     0.2990 ca         1 1QN       0.407600
     16 C11         -2.2710     0.0730     0.0140 ca         1 1QN      -0.230300
     17 C12          1.2540    -1.2820     0.0000 cd         1 1QN       0.391800
     18 C14         -0.5760    -2.4780     0.2650 cc         1 1QN      -0.117300
     19 C15         -4.4670     1.3040    -0.2240 c3         1 1QN       0.101500
     20 N4          -5.0600     0.0270    -0.5480 n7         1 1QN      -0.811200
     21 C17         -6.3600     0.1610    -1.1730 c3         1 1QN       0.147100
     22 H3           1.0070     1.0910    -1.3000 ha         1 1QN       0.144500
     23 H4           3.7840    -1.3050     0.9170 ha         1 1QN       0.144500
     24 H6          -1.0300     2.9980     2.0650 h4         1 1QN       0.018100
     25 H5           0.4810     1.0930     1.6880 ha         1 1QN       0.149000
     26 H13          1.2640    -5.0850     0.6930 h1         1 1QN       0.059033
     27 H12         -0.4480    -5.0900     0.2450 h1         1 1QN       0.059033
     28 H14          0.7930    -5.0230    -1.0160 h1         1 1QN       0.059033
     29 H1           5.5100     0.4360     0.6310 ha         1 1QN       0.150500
     30 H2           2.7250     2.8340    -1.5680 ha         1 1QN       0.150500
     31 H7          -2.6770    -0.7260    -0.5910 ha         1 1QN       0.156000
     32 H8          -1.5580    -2.8880     0.4430 h4         1 1QN       0.177000
     33 H9          -5.0540     1.8920     0.4970 h1         1 1QN       0.052200
     34 H10         -4.4390     1.9060    -1.1400 h1         1 1QN       0.052200
     35 H11         -5.1550    -0.5180     0.3000 hn         1 1QN       0.352800
     36 H15         -7.0770     0.7610    -0.5970 h1         1 1QN       0.031033
     37 H16         -6.2540     0.6300    -2.1540 h1         1 1QN       0.031033
     38 H17         -6.7960    -0.8260    -1.3260 h1         1 1QN       0.031033
     39 F1           5.1360     2.6740    -0.6250 f          1 1QN      -0.144900
@<TRIPOS>BOND
     1     1     3 1   
     2     1    17 2   
     3     2    12 ar  
     4     2    13 ar  
     5     2    22 1   
     6     3     9 1   
     7     3    18 1   
     8     4     7 1   
     9     4     8 ar  
    10     4    16 ar  
    11     5    10 ar  
    12     5    13 ar  
    13     5    23 1   
    14     6     8 ar  
    15     6    14 ar  
    16     6    24 1   
    17     7    17 1   
    18     7    18 2   
    19     8    25 1   
    20     9    26 1   
    21     9    27 1   
    22     9    28 1   
    23    10    11 ar  
    24    10    29 1   
    25    11    12 ar  
    26    11    39 1   
    27    12    30 1   
    28    13    17 1   
    29    14    15 ar  
    30    15    16 ar  
    31    15    19 1   
    32    16    31 1   
    33    18    32 1   
    34    19    20 1   
    35    19    33 1   
    36    19    34 1   
    37    20    21 1   
    38    20    35 1   
    39    21    36 1   
    40    21    37 1   
    41    21    38 1   
@<TRIPOS>SUBSTRUCTURE
     1 1QN         1 TEMP              0 ****  ****    0 ROOT
