@<TRIPOS>MOLECULE
1QN
   39    41     1     0     0
SMALL
No Charge or Current Charge


@<TRIPOS>ATOM
      1 N3           1.8880    -2.5820    -0.2840 nc         1 1QN      -0.519800
      2 C4           2.2450     0.8960    -0.7740 ca         1 1QN      -0.061500
      3 N2           0.7470    -3.3250    -0.4690 na         1 1QN       0.141800
      4 C7          -0.9040    -0.1530     0.1040 ca         1 1QN       0.044000
      5 C6           3.4650    -0.3410     0.9330 ca         1 1QN      -0.061500
      6 C9          -1.4070     2.0790     0.9290 ca         1 1QN       0.337900
      7 C13         -0.0050    -1.3130    -0.0830 cd         1 1QN      -0.157000
      8 C8          -0.5000     1.0210     0.7690 ca         1 1QN      -0.158000
      9 C16          0.8460    -4.7670    -0.7340 c3         1 1QN       0.072900
     10 C1           4.3930     0.7120     1.0300 ca         1 1QN      -0.158000
     11 C2           4.2410     1.8540     0.2300 ca         1 1QN       0.175000
     12 C3           3.1730     1.9470    -0.6750 ca         1 1QN      -0.158000
     13 C5           2.3710    -0.2450     0.0470 ca         1 1QN      -0.136500
     14 N1          -2.6790     2.0350     0.4780 nb         1 1QN      -0.681000
     15 C10         -3.0880     0.9040    -0.1480 ca         1 1QN       0.342300
     16 C11         -2.2390    -0.2020    -0.3420 ca         1 1QN      -0.147000
     17 C12          1.4220    -1.3630    -0.0890 cd         1 1QN       0.326500
     18 C14         -0.4220    -2.5810    -0.3920 cc         1 1QN      -0.150000
     19 C15         -4.5450     0.8720    -0.6430 c3         1 1QN       0.101500
     20 N4          -5.5310     0.5460     0.4270 n7         1 1QN      -0.866400
     21 C17         -6.9450     0.5520     0.0020 c3         1 1QN       0.147100
     22 H3           1.4270     0.9660    -1.4890 ha         1 1QN       0.126500
     23 H4           3.5910    -1.2280     1.5510 ha         1 1QN       0.126500
     24 H6          -1.1080     2.9900     1.4460 h4         1 1QN       0.018100
     25 H5           0.4890     1.1190     1.2000 ha         1 1QN       0.131000
     26 H13          1.3910    -5.2540     0.0840 h1         1 1QN       0.059033
     27 H12         -0.1590    -5.2010    -0.8070 h1         1 1QN       0.059033
     28 H14          1.3810    -4.9300    -1.6770 h1         1 1QN       0.059033
     29 H1           5.2290     0.6420     1.7210 ha         1 1QN       0.132500
     30 H2           3.0700     2.8300    -1.3010 ha         1 1QN       0.132500
     31 H7          -2.6250    -1.0790    -0.8510 ha         1 1QN       0.138000
     32 H8          -1.4050    -3.0150    -0.5230 h4         1 1QN       0.159000
     33 H9          -4.7760     1.8520    -1.0840 h1         1 1QN       0.052200
     34 H10         -4.6180     0.1380    -1.4590 h1         1 1QN       0.052200
     35 H11         -5.4180     1.2440     1.1760 hn         1 1QN       0.408000
     36 H15         -7.2380     1.5420    -0.3740 h1         1 1QN       0.031033
     37 H16         -7.1170    -0.1830    -0.7970 h1         1 1QN       0.031033
     38 H17         -7.6030     0.2990     0.8440 h1         1 1QN       0.031033
     39 F1           5.1330     2.8630     0.3230 f          1 1QN      -0.180000
@<TRIPOS>BOND
     1     1     3 1   
     2     1    17 2   
     3     2    12 ar  
     4     2    13 ar  
     5     2    22 1   
     6     3     9 1   
     7     3    18 1   
     8     4     7 1   
     9     4     8 ar  
    10     4    16 ar  
    11     5    10 ar  
    12     5    13 ar  
    13     5    23 1   
    14     6     8 ar  
    15     6    14 ar  
    16     6    24 1   
    17     7    17 1   
    18     7    18 2   
    19     8    25 1   
    20     9    26 1   
    21     9    27 1   
    22     9    28 1   
    23    10    11 ar  
    24    10    29 1   
    25    11    12 ar  
    26    11    39 1   
    27    12    30 1   
    28    13    17 1   
    29    14    15 ar  
    30    15    16 ar  
    31    15    19 1   
    32    16    31 1   
    33    18    32 1   
    34    19    20 1   
    35    19    33 1   
    36    19    34 1   
    37    20    21 1   
    38    20    35 1   
    39    21    36 1   
    40    21    37 1   
    41    21    38 1   
@<TRIPOS>SUBSTRUCTURE
     1 1QN         1 TEMP              0 ****  ****    0 ROOT
