@<TRIPOS>MOLECULE
1QO
   34    36     1     0     0
SMALL
abcg2


@<TRIPOS>ATOM
      1 N1          -1.3200    -0.3830    -0.2170 nu         1 1QO      -0.924100
      2 C2          -0.1160    -0.9690    -0.0900 ca         1 1QO       0.389900
      3 N3           0.9470    -0.1560    -0.0870 nb         1 1QO      -0.262000
      4 C4           2.2900    -2.0840     0.2260 ca         1 1QO      -0.282000
      5 N4           5.6570     0.5570    -0.1700 nb         1 1QO      -0.672000
      6 C5           2.1410    -0.7060     0.0670 cp         1 1QO       0.232500
      7 C6           3.2950     0.2150     0.0770 cp         1 1QO      -0.211500
      8 C11         -3.7340    -0.1860    -0.1810 ca         1 1QO      -0.116300
      9 C12         -4.6530    -0.0190    -1.2110 ca         1 1QO      -0.094500
     10 C13         -5.7420     0.8310    -1.0580 ca         1 1QO      -0.112500
     11 C1          -2.5610    -1.1150    -0.3410 c3         1 1QO       0.287100
     12 N2          -0.0760    -2.3000     0.0290 nb         1 1QO      -0.246000
     13 C3           1.1260    -2.8290     0.1900 ca         1 1QO       0.152900
     14 C7           3.1240     1.5740     0.3340 ca         1 1QO      -0.030000
     15 C8           4.2320     2.4010     0.3460 ca         1 1QO      -0.175000
     16 C9           5.4780     1.8460     0.0920 ca         1 1QO       0.346900
     17 C10          4.5910    -0.2310    -0.1750 ca         1 1QO       0.357900
     18 C14         -5.9200     1.5260     0.1290 ca         1 1QO      -0.101000
     19 C15         -5.0040     1.3680     1.1630 ca         1 1QO      -0.112500
     20 C16         -3.9200     0.5170     1.0080 ca         1 1QO      -0.094500
     21 H3          -1.3230     0.6070    -0.4060 hn         1 1QO       0.508000
     22 H5           3.2460    -2.5590     0.3830 ha         1 1QO       0.135000
     23 H10         -4.5170    -0.5560    -2.1430 ha         1 1QO       0.117000
     24 H11         -6.4480     0.9510    -1.8700 ha         1 1QO       0.115000
     25 H2          -2.6210    -1.6310    -1.3050 h1         1 1QO       0.059200
     26 H1          -2.5950    -1.8890     0.4280 h1         1 1QO       0.059200
     27 H4           1.1670    -3.9080     0.2980 h4         1 1QO       0.020100
     28 H6           2.1360     1.9690     0.5300 ha         1 1QO       0.139000
     29 H7           4.1380     3.4590     0.5500 ha         1 1QO       0.126000
     30 H8           6.3660     2.4680     0.1000 h4         1 1QO       0.020100
     31 H9           4.7780    -1.2740    -0.4080 h4         1 1QO       0.020100
     32 H12         -6.7670     2.1890     0.2490 ha         1 1QO       0.114000
     33 H13         -5.1380     1.9050     2.0930 ha         1 1QO       0.115000
     34 H14         -3.2140     0.3960     1.8210 ha         1 1QO       0.117000
@<TRIPOS>BOND
     1     1     2 1   
     2     1    11 1   
     3     1    21 1   
     4     2     3 ar  
     5     2    12 ar  
     6     3     6 ar  
     7     4     6 ar  
     8     4    13 ar  
     9     4    22 1   
    10     5    16 ar  
    11     5    17 ar  
    12     6     7 1   
    13     7    14 ar  
    14     7    17 ar  
    15     8     9 ar  
    16     8    11 1   
    17     8    20 ar  
    18     9    10 ar  
    19     9    23 1   
    20    10    18 ar  
    21    10    24 1   
    22    11    25 1   
    23    11    26 1   
    24    12    13 ar  
    25    13    27 1   
    26    14    15 ar  
    27    14    28 1   
    28    15    16 ar  
    29    15    29 1   
    30    16    30 1   
    31    17    31 1   
    32    18    19 ar  
    33    18    32 1   
    34    19    20 ar  
    35    19    33 1   
    36    20    34 1   
@<TRIPOS>SUBSTRUCTURE
     1 1QO         1 TEMP              0 ****  ****    0 ROOT
