@<TRIPOS>MOLECULE
1QO
   34    36     1     0     0
SMALL
No Charge or Current Charge


@<TRIPOS>ATOM
      1 N1          -1.3680    -0.5500     0.0200 nu         1 1QO      -0.924100
      2 C2          -0.1070    -1.1210     0.0440 ca         1 1QO       0.389900
      3 N3           0.9170    -0.2530     0.0180 nb         1 1QO      -0.262000
      4 C4           2.3540    -2.1580     0.0920 ca         1 1QO      -0.282000
      5 N4           5.6900     0.6570    -0.3510 nb         1 1QO      -0.672000
      6 C5           2.1690    -0.7540     0.0360 cp         1 1QO       0.232500
      7 C6           3.3050     0.2260     0.0060 cp         1 1QO      -0.211500
      8 C11         -3.7900    -0.2160    -0.0010 ca         1 1QO      -0.116300
      9 C12         -4.3100     0.2230    -1.2360 ca         1 1QO      -0.094500
     10 C13         -5.3500     1.1680    -1.2720 ca         1 1QO      -0.112500
     11 C1          -2.6640    -1.2400     0.0390 c3         1 1QO       0.287100
     12 N2          -0.0240    -2.4630     0.0910 nb         1 1QO      -0.246000
     13 C3           1.2170    -2.9810     0.1170 ca         1 1QO       0.152900
     14 C7           3.1110     1.6070     0.2790 ca         1 1QO      -0.030000
     15 C8           4.2110     2.4760     0.2350 ca         1 1QO      -0.175000
     16 C9           5.4770     1.9630    -0.0810 ca         1 1QO       0.346900
     17 C10          4.6280    -0.1810    -0.3060 ca         1 1QO       0.357900
     18 C14         -5.8760     1.6830    -0.0750 ca         1 1QO      -0.101000
     19 C15         -5.3610     1.2510     1.1590 ca         1 1QO      -0.112500
     20 C16         -4.3210     0.3050     1.1960 ca         1 1QO      -0.094500
     21 H3          -1.3890     0.4690    -0.0180 hn         1 1QO       0.508000
     22 H5           3.3400    -2.6070     0.1280 ha         1 1QO       0.135000
     23 H10         -3.9070    -0.1690    -2.1680 ha         1 1QO       0.117000
     24 H11         -5.7470     1.5030    -2.2280 ha         1 1QO       0.115000
     25 H2          -2.7510    -1.9140    -0.8250 h1         1 1QO       0.059200
     26 H1          -2.7570    -1.8520     0.9470 h1         1 1QO       0.059200
     27 H4           1.2990    -4.0660     0.1620 h4         1 1QO       0.020100
     28 H6           2.1280     2.0010     0.5290 ha         1 1QO       0.139000
     29 H7           4.0910     3.5350     0.4430 ha         1 1QO       0.126000
     30 H8           6.3470     2.6170    -0.1220 h4         1 1QO       0.020100
     31 H9           4.8530    -1.2190    -0.5450 h4         1 1QO       0.020100
     32 H12         -6.6800     2.4150    -0.1040 ha         1 1QO       0.114000
     33 H13         -5.7660     1.6490     2.0870 ha         1 1QO       0.115000
     34 H14         -3.9260    -0.0220     2.1560 ha         1 1QO       0.117000
@<TRIPOS>BOND
     1     1     2 1   
     2     1    11 1   
     3     1    21 1   
     4     2     3 ar  
     5     2    12 ar  
     6     3     6 ar  
     7     4     6 ar  
     8     4    13 ar  
     9     4    22 1   
    10     5    16 ar  
    11     5    17 ar  
    12     6     7 1   
    13     7    14 ar  
    14     7    17 ar  
    15     8     9 ar  
    16     8    11 1   
    17     8    20 ar  
    18     9    10 ar  
    19     9    23 1   
    20    10    18 ar  
    21    10    24 1   
    22    11    25 1   
    23    11    26 1   
    24    12    13 ar  
    25    13    27 1   
    26    14    15 ar  
    27    14    28 1   
    28    15    16 ar  
    29    15    29 1   
    30    16    30 1   
    31    17    31 1   
    32    18    19 ar  
    33    18    32 1   
    34    19    20 ar  
    35    19    33 1   
    36    20    34 1   
@<TRIPOS>SUBSTRUCTURE
     1 1QO         1 TEMP              0 ****  ****    0 ROOT
