@<TRIPOS>MOLECULE
1QP
   24    25     1     0     0
SMALL
abcg2


@<TRIPOS>ATOM
      1 O1           1.4660    -1.8420    -0.0160 o          1 1QP      -0.514000
      2 C1           1.4540    -0.6290    -0.0220 c          1 1QP       0.653300
      3 O2           2.5520     0.1190    -0.0230 os         1 1QP      -0.448100
      4 C9           3.8220    -0.5470    -0.0130 c3         1 1QP       0.169600
      5 C10          4.8970     0.5120    -0.0130 c3         1 1QP      -0.097100
      6 C2           0.2500     0.1770    -0.0300 cc         1 1QP      -0.382800
      7 C8           0.1160     1.5730    -0.0380 cc         1 1QP       0.445500
      8 N2          -1.1410     1.9620    -0.0420 nd         1 1QP      -0.589100
      9 N1          -1.8520     0.8240    -0.0370 na         1 1QP       0.320400
     10 C3          -1.0670    -0.3010    -0.0300 cd         1 1QP      -0.023000
     11 C7          -3.2080     0.7870    -0.0380 cc         1 1QP      -0.076000
     12 C6          -3.8310    -0.4200    -0.0320 cd         1 1QP      -0.159000
     13 C5          -3.0650    -1.6090    -0.0250 cc         1 1QP      -0.081000
     14 C4          -1.7000    -1.5580    -0.0240 cd         1 1QP      -0.095000
     15 H1           3.8990    -1.1810     0.8730 h1         1 1QP       0.046700
     16 H2           3.9090    -1.1900    -0.8910 h1         1 1QP       0.046700
     17 H3           5.8740     0.0290    -0.0050 hc         1 1QP       0.045700
     18 H4           4.8420     1.1400    -0.9020 hc         1 1QP       0.045700
     19 H5           4.8320     1.1490     0.8690 hc         1 1QP       0.045700
     20 H6           0.9030     2.3120    -0.0410 h4         1 1QP       0.059800
     21 H7          -3.7130     1.7420    -0.0430 h4         1 1QP       0.163000
     22 H8          -4.9100    -0.4560    -0.0330 ha         1 1QP       0.136000
     23 H9          -3.5690    -2.5650    -0.0210 ha         1 1QP       0.128000
     24 H10         -1.0970    -2.4530    -0.0180 ha         1 1QP       0.159000
@<TRIPOS>BOND
     1     1     2 2   
     2     2     3 1   
     3     2     6 1   
     4     3     4 1   
     5     4     5 1   
     6     4    15 1   
     7     4    16 1   
     8     5    17 1   
     9     5    18 1   
    10     5    19 1   
    11     6     7 1   
    12     6    10 2   
    13     7     8 2   
    14     7    20 1   
    15     8     9 1   
    16     9    10 1   
    17     9    11 1   
    18    10    14 1   
    19    11    12 2   
    20    11    21 1   
    21    12    13 1   
    22    12    22 1   
    23    13    14 2   
    24    13    23 1   
    25    14    24 1   
@<TRIPOS>SUBSTRUCTURE
     1 1QP         1 TEMP              0 ****  ****    0 ROOT
