@<TRIPOS>MOLECULE
1QP
   24    25     1     0     0
SMALL
No Charge or Current Charge


@<TRIPOS>ATOM
      1 O1           1.4320    -1.8820    -0.0120 o          1 1QP      -0.514000
      2 C1           1.4170    -0.6590    -0.0190 c          1 1QP       0.653300
      3 O2           2.5510     0.1070    -0.0200 os         1 1QP      -0.448100
      4 C9           3.8230    -0.5630    -0.0130 c3         1 1QP       0.169600
      5 C10          4.9130     0.5200    -0.0150 c3         1 1QP      -0.097100
      6 C2           0.1890     0.1410    -0.0270 cc         1 1QP      -0.382800
      7 C8           0.1390     1.5420    -0.0340 cc         1 1QP       0.445500
      8 N2          -1.0900     2.0440    -0.0410 nd         1 1QP      -0.589100
      9 N1          -1.8880     0.9040    -0.0370 na         1 1QP       0.320400
     10 C3          -1.1130    -0.2520    -0.0280 cd         1 1QP      -0.023000
     11 C7          -3.2840     0.8580    -0.0400 cc         1 1QP      -0.076000
     12 C6          -3.8090    -0.4390    -0.0350 cd         1 1QP      -0.159000
     13 C5          -3.0390    -1.5960    -0.0260 cc         1 1QP      -0.081000
     14 C4          -1.6620    -1.5670    -0.0230 cd         1 1QP      -0.095000
     15 H1           3.9310    -1.1890     0.8830 h1         1 1QP       0.046700
     16 H2           3.9360    -1.1990    -0.9010 h1         1 1QP       0.046700
     17 H3           5.9070     0.0580    -0.0100 hc         1 1QP       0.045700
     18 H4           4.8300     1.1490    -0.9100 hc         1 1QP       0.045700
     19 H5           4.8260     1.1580     0.8720 hc         1 1QP       0.045700
     20 H6           0.9760     2.2280    -0.0360 h4         1 1QP       0.059800
     21 H7          -3.8320     1.7900    -0.0470 h4         1 1QP       0.163000
     22 H8          -4.8890    -0.5470    -0.0370 ha         1 1QP       0.136000
     23 H9          -3.5400    -2.5590    -0.0230 ha         1 1QP       0.128000
     24 H10         -1.0610    -2.4700    -0.0160 ha         1 1QP       0.159000
@<TRIPOS>BOND
     1     1     2 2   
     2     2     3 1   
     3     2     6 1   
     4     3     4 1   
     5     4     5 1   
     6     4    15 1   
     7     4    16 1   
     8     5    17 1   
     9     5    18 1   
    10     5    19 1   
    11     6     7 1   
    12     6    10 2   
    13     7     8 2   
    14     7    20 1   
    15     8     9 1   
    16     9    10 1   
    17     9    11 1   
    18    10    14 1   
    19    11    12 2   
    20    11    21 1   
    21    12    13 1   
    22    12    22 1   
    23    13    14 2   
    24    13    23 1   
    25    14    24 1   
@<TRIPOS>SUBSTRUCTURE
     1 1QP         1 TEMP              0 ****  ****    0 ROOT
