@<TRIPOS>MOLECULE
1QQ
   18    17     1     0     0
SMALL
No Charge or Current Charge


@<TRIPOS>ATOM
      1 C42          1.7110     0.1820     0.5480 c          1 1QQ       0.649000
      2 C44          0.4720    -0.4540    -0.2800 c          1 1QQ       0.435100
      3 C46         -0.8750     0.3130    -0.2300 c3         1 1QQ      -0.174700
      4 C48         -1.2810     0.8030    -1.6420 c3         1 1QQ      -0.067100
      5 C47         -1.9700    -0.5390     0.4690 c3         1 1QQ      -0.066400
      6 C49         -3.2730     0.2270     0.7820 c3         1 1QQ      -0.085100
      7 O45          0.5820    -1.5010    -0.9280 o          1 1QQ      -0.569100
      8 O43          1.5080     0.5890     1.6890 o          1 1QQ      -0.701500
      9 H46         -0.7090     1.2050     0.3860 hc         1 1QQ       0.078700
     10 H481        -1.5240    -0.0430    -2.2960 hc         1 1QQ       0.025033
     11 H482        -2.1540     1.4650    -1.5960 hc         1 1QQ       0.025033
     12 H483        -0.4600     1.3670    -2.1020 hc         1 1QQ       0.025033
     13 H471        -2.2080    -1.4140    -0.1490 hc         1 1QQ       0.037200
     14 H472        -1.5670    -0.9240     1.4140 hc         1 1QQ       0.037200
     15 H491        -3.0650     1.1200     1.3830 hc         1 1QQ       0.017367
     16 H492        -3.7810     0.5360    -0.1390 hc         1 1QQ       0.017367
     17 H493        -3.9610    -0.4130     1.3470 hc         1 1QQ       0.017367
     18 OXT          2.8160     0.2220     0.0100 o          1 1QQ      -0.701500
@<TRIPOS>BOND
     1     1     2 1   
     2     1     8 1   
     3     1    18 1   
     4     2     3 1   
     5     2     7 2   
     6     3     4 1   
     7     3     5 1   
     8     3     9 1   
     9     4    10 1   
    10     4    11 1   
    11     4    12 1   
    12     5     6 1   
    13     5    13 1   
    14     5    14 1   
    15     6    15 1   
    16     6    16 1   
    17     6    17 1   
@<TRIPOS>SUBSTRUCTURE
     1 1QQ         1 TEMP              0 ****  ****    0 ROOT
