@<TRIPOS>MOLECULE
1QQ
   18    17     1     0     0
SMALL
bcc


@<TRIPOS>ATOM
      1 C42          1.7330     0.3260    -0.0170 c          1 1QQ       0.859600
      2 C44          0.4220    -0.5070     0.0320 c          1 1QQ       0.435100
      3 C46         -0.8880     0.2470     0.0640 c3         1 1QQ      -0.174700
      4 C48         -1.0690     0.9440    -1.2920 c3         1 1QQ      -0.067100
      5 C47         -2.0710    -0.6500     0.4180 c3         1 1QQ      -0.066400
      6 C49         -3.3730     0.1190     0.6030 c3         1 1QQ      -0.085100
      7 O45          0.4750    -1.7160     0.0430 o          1 1QQ      -0.569100
      8 O43          1.6760     1.4460     0.5200 o          1 1QQ      -0.806800
      9 H46         -0.7900     1.0300     0.8220 hc         1 1QQ       0.078700
     10 H481        -1.1960     0.2140    -2.0940 hc         1 1QQ       0.025033
     11 H482        -1.9490     1.5860    -1.2820 hc         1 1QQ       0.025033
     12 H483        -0.2150     1.5740    -1.5400 hc         1 1QQ       0.025033
     13 H471        -2.2010    -1.4120    -0.3560 hc         1 1QQ       0.037200
     14 H472        -1.8480    -1.1900     1.3420 hc         1 1QQ       0.037200
     15 H491        -3.2590     0.9120     1.3450 hc         1 1QQ       0.017367
     16 H492        -3.7160     0.5800    -0.3240 hc         1 1QQ       0.017367
     17 H493        -4.1680    -0.5420     0.9490 hc         1 1QQ       0.017367
     18 OXT          2.6980    -0.2220    -0.5670 o          1 1QQ      -0.806800
@<TRIPOS>BOND
     1     1     2 1   
     2     1     8 1   
     3     1    18 1   
     4     2     3 1   
     5     2     7 2   
     6     3     4 1   
     7     3     5 1   
     8     3     9 1   
     9     4    10 1   
    10     4    11 1   
    11     4    12 1   
    12     5     6 1   
    13     5    13 1   
    14     5    14 1   
    15     6    15 1   
    16     6    16 1   
    17     6    17 1   
@<TRIPOS>SUBSTRUCTURE
     1 1QQ         1 TEMP              0 ****  ****    0 ROOT
