@<TRIPOS>MOLECULE
1QR
   50    53     1     0     0
SMALL
bcc


@<TRIPOS>ATOM
      1 C4          -2.3160     0.4060    -1.5210 ca         1 1QR      -0.037000
      2 C5          -1.2750    -0.4650    -1.8070 ca         1 1QR      -0.138000
      3 C6          -0.5240    -1.0390    -0.7880 ca         1 1QR      -0.066300
      4 C7           0.6200    -1.9680    -1.1050 c3         1 1QR       0.140300
      5 C13          5.9990    -0.1680     0.8410 ca         1 1QR      -0.247100
      6 C17          6.2570     1.7940    -0.5770 ca         1 1QR      -0.268300
      7 C26         -5.1430    -1.4430     1.4100 c6         1 1QR      -0.106400
      8 C28         -5.6130    -1.2280    -1.0420 c6         1 1QR      -0.106400
      9 C1          -0.8250    -0.7200     0.5350 ca         1 1QR      -0.138000
     10 C2          -1.8580     0.1490     0.8370 ca         1 1QR      -0.037000
     11 C3          -2.6060     0.7010    -0.1980 ca         1 1QR      -0.290500
     12 N8           1.9060    -1.3400    -0.8870 ns         1 1QR      -0.575900
     13 C9           2.6470    -1.5450     0.2170 c          1 1QR       0.706300
     14 O10          2.3240    -2.3070     1.1180 o          1 1QR      -0.587100
     15 C11          3.9250    -0.8060     0.2990 cc         1 1QR      -0.157300
     16 C12          4.9810    -1.1270     1.1040 cd         1 1QR      -0.080200
     17 C14          7.2930     0.0600     1.3170 ca         1 1QR       0.472200
     18 N15          8.0280     1.0680     0.8940 nb         1 1QR      -0.692000
     19 C16          7.5140     1.9060    -0.0250 ca         1 1QR       0.421200
     20 C18          5.4900     0.7200    -0.1290 ca         1 1QR      -0.008200
     21 N19          4.2410     0.3070    -0.4510 na         1 1QR      -0.164400
     22 S21         -3.9880     1.7480     0.1810 sy         1 1QR       1.311200
     23 O22         -3.7250     2.3650     1.4720 o          1 1QR      -0.608300
     24 O23         -4.2180     2.5930    -0.9800 o          1 1QR      -0.608300
     25 N24         -5.3140     0.8030     0.3590 n3         1 1QR      -0.749500
     26 C25         -5.5070     0.0250     1.5850 c6         1 1QR       0.206300
     27 C27         -5.8750    -2.0470     0.2170 c6         1 1QR      -0.071400
     28 C29         -5.9700     0.2350    -0.8230 c6         1 1QR       0.206300
     29 H1          -2.8820     0.8470    -2.3310 ha         1 1QR       0.154500
     30 H2          -1.0470    -0.6940    -2.8410 ha         1 1QR       0.143000
     31 H3           0.5620    -2.8620    -0.4860 h1         1 1QR       0.068700
     32 H4           0.5680    -2.2890    -2.1460 h1         1 1QR       0.068700
     33 H6          -4.0620    -1.5460     1.2730 hc         1 1QR       0.050200
     34 H7          -5.3970    -1.9750     2.3290 hc         1 1QR       0.050200
     35 H8          -4.5610    -1.3160    -1.3280 hc         1 1QR       0.050200
     36 H9          -6.2000    -1.6080    -1.8800 hc         1 1QR       0.050200
     37 H10         -0.2470    -1.1550     1.3410 ha         1 1QR       0.143000
     38 H11         -2.0710     0.3900     1.8690 ha         1 1QR       0.154500
     39 H12          2.2610    -0.7690    -1.6360 hn         1 1QR       0.313500
     40 H13          5.0270    -1.9620     1.7850 ha         1 1QR       0.176000
     41 H14          7.7320    -0.5960     2.0620 h4         1 1QR       0.024100
     42 H15          8.1610     2.7180    -0.3380 h4         1 1QR       0.019100
     43 H16          3.6120     0.8230    -1.0450 hn         1 1QR       0.300700
     44 H17         -6.5660     0.1120     1.8440 h1         1 1QR       0.068700
     45 H18         -4.9520     0.4780     2.4030 h1         1 1QR       0.068700
     46 H19         -5.5690    -3.0840     0.0670 hc         1 1QR       0.045700
     47 H20         -6.9510    -2.0640     0.4220 hc         1 1QR       0.045700
     48 H21         -5.7370     0.8380    -1.6980 h1         1 1QR       0.068700
     49 H22         -7.0470     0.3320    -0.6560 h1         1 1QR       0.068700
     50 H5           5.9000     2.5020    -1.3130 ha         1 1QR       0.144000
@<TRIPOS>BOND
     1     1     2 ar  
     2     1    11 ar  
     3     1    29 1   
     4     2     3 ar  
     5     2    30 1   
     6     3     4 1   
     7     3     9 ar  
     8     4    12 1   
     9     4    31 1   
    10     4    32 1   
    11     5    16 1   
    12     5    17 ar  
    13     5    20 ar  
    14     6    19 ar  
    15     6    20 ar  
    16     6    50 1   
    17     7    26 1   
    18     7    27 1   
    19     7    33 1   
    20     7    34 1   
    21     8    27 1   
    22     8    28 1   
    23     8    35 1   
    24     8    36 1   
    25     9    10 ar  
    26     9    37 1   
    27    10    11 ar  
    28    10    38 1   
    29    11    22 1   
    30    12    13 1   
    31    12    39 1   
    32    13    14 2   
    33    13    15 1   
    34    15    16 2   
    35    15    21 1   
    36    16    40 1   
    37    17    18 ar  
    38    17    41 1   
    39    18    19 ar  
    40    19    42 1   
    41    20    21 1   
    42    21    43 1   
    43    22    23 2   
    44    22    24 2   
    45    22    25 1   
    46    25    26 1   
    47    25    28 1   
    48    26    44 1   
    49    26    45 1   
    50    27    46 1   
    51    27    47 1   
    52    28    48 1   
    53    28    49 1   
@<TRIPOS>SUBSTRUCTURE
     1 1QR         1 TEMP              0 ****  ****    0 ROOT
