@<TRIPOS>MOLECULE
1QR
   50    53     1     0     0
SMALL
No Charge or Current Charge


@<TRIPOS>ATOM
      1 C4          -2.0060     0.6710    -1.0730 ca         1 1QR      -0.019000
      2 C5          -0.9210     0.1190    -1.7750 ca         1 1QR      -0.120000
      3 C6          -0.2220    -0.9860    -1.2550 ca         1 1QR      -0.066300
      4 C7           0.9540    -1.5810    -2.0160 c3         1 1QR       0.140300
      5 C13          6.2930     0.0530     0.5190 ca         1 1QR      -0.181800
      6 C17          6.7180     2.0860    -0.6520 ca         1 1QR      -0.185000
      7 C26         -7.0860    -0.1350     1.6460 c6         1 1QR      -0.106400
      8 C28         -5.7050    -2.0650     0.7170 c6         1 1QR      -0.106400
      9 C1          -0.6190    -1.5340    -0.0200 ca         1 1QR      -0.120000
     10 C2          -1.7020    -0.9870     0.6880 ca         1 1QR      -0.019000
     11 C3          -2.4000     0.1200     0.1630 ca         1 1QR      -0.290500
     12 N8           2.2200    -0.9650    -1.6130 ns         1 1QR      -0.508900
     13 C9           3.0640    -1.4710    -0.6510 c          1 1QR       0.639300
     14 O10          2.8320    -2.5160    -0.0590 o          1 1QR      -0.587100
     15 C11          4.2700    -0.6340    -0.4080 cc         1 1QR      -0.157300
     16 C12          5.2590    -0.9520     0.5190 cd         1 1QR      -0.130200
     17 C14          7.4820     0.2030     1.2490 ca         1 1QR       0.406900
     18 N15          8.2900     1.2790     1.0390 nb         1 1QR      -0.692000
     19 C16          7.9050     2.1960     0.1050 ca         1 1QR       0.355900
     20 C18          5.9140     0.9700    -0.4110 ca         1 1QR      -0.008200
     21 N19          4.7110     0.5890    -0.9820 na         1 1QR      -0.214700
     22 S21         -3.8030     0.8240     1.0520 sy         1 1QR       1.169600
     23 O22         -3.9130     0.2040     2.3770 o          1 1QR      -0.537500
     24 O23         -3.7370     2.2790     0.8740 o          1 1QR      -0.537500
     25 N24         -5.1350     0.3100     0.1110 n3         1 1QR      -0.749500
     26 C25         -6.4750     0.7770     0.5490 c6         1 1QR       0.206300
     27 C27         -7.1070    -1.6170     1.1980 c6         1 1QR      -0.071400
     28 C29         -5.1580    -1.1000    -0.3650 c6         1 1QR       0.206300
     29 H1          -2.5410     1.5220    -1.4920 ha         1 1QR       0.136500
     30 H2          -0.6250     0.5530    -2.7280 ha         1 1QR       0.125000
     31 H3           0.9960    -2.6660    -1.8490 h1         1 1QR       0.068700
     32 H4           0.8130    -1.4220    -3.0940 h1         1 1QR       0.068700
     33 H6          -6.5210    -0.0350     2.5810 hc         1 1QR       0.050200
     34 H7          -8.1080     0.1980     1.8720 hc         1 1QR       0.050200
     35 H8          -5.0120    -2.1140     1.5670 hc         1 1QR       0.050200
     36 H9          -5.7610    -3.0830     0.3070 hc         1 1QR       0.050200
     37 H10         -0.0850    -2.3870     0.3940 ha         1 1QR       0.125000
     38 H11         -1.9950    -1.4280     1.6400 ha         1 1QR       0.136500
     39 H12          2.4880    -0.0930    -2.0460 hn         1 1QR       0.313500
     40 H13          5.2460    -1.8390     1.1520 ha         1 1QR       0.226000
     41 H14          7.7950    -0.5260     1.9960 h4         1 1QR       0.024100
     42 H15          8.5730     3.0450    -0.0390 h4         1 1QR       0.019100
     43 H16          4.2310     1.1180    -1.7030 hn         1 1QR       0.351000
     44 H17         -7.1590     0.7760    -0.3130 h1         1 1QR       0.068700
     45 H18         -6.4370     1.8160     0.9090 h1         1 1QR       0.068700
     46 H19         -7.4460    -2.2570     2.0240 hc         1 1QR       0.045700
     47 H20         -7.8330    -1.7450     0.3830 hc         1 1QR       0.045700
     48 H21         -4.1710    -1.4430    -0.7040 h1         1 1QR       0.068700
     49 H22         -5.8160    -1.1720    -1.2450 h1         1 1QR       0.068700
     50 H5           6.4500     2.8400    -1.3870 ha         1 1QR       0.126000
@<TRIPOS>BOND
     1     1     2 ar  
     2     1    11 ar  
     3     1    29 1   
     4     2     3 ar  
     5     2    30 1   
     6     3     4 1   
     7     3     9 ar  
     8     4    12 1   
     9     4    31 1   
    10     4    32 1   
    11     5    16 1   
    12     5    17 ar  
    13     5    20 ar  
    14     6    19 ar  
    15     6    20 ar  
    16     6    50 1   
    17     7    26 1   
    18     7    27 1   
    19     7    33 1   
    20     7    34 1   
    21     8    27 1   
    22     8    28 1   
    23     8    35 1   
    24     8    36 1   
    25     9    10 ar  
    26     9    37 1   
    27    10    11 ar  
    28    10    38 1   
    29    11    22 1   
    30    12    13 1   
    31    12    39 1   
    32    13    14 2   
    33    13    15 1   
    34    15    16 2   
    35    15    21 1   
    36    16    40 1   
    37    17    18 ar  
    38    17    41 1   
    39    18    19 ar  
    40    19    42 1   
    41    20    21 1   
    42    21    43 1   
    43    22    23 2   
    44    22    24 2   
    45    22    25 1   
    46    25    26 1   
    47    25    28 1   
    48    26    44 1   
    49    26    45 1   
    50    27    46 1   
    51    27    47 1   
    52    28    48 1   
    53    28    49 1   
@<TRIPOS>SUBSTRUCTURE
     1 1QR         1 TEMP              0 ****  ****    0 ROOT
