@<TRIPOS>MOLECULE
1QS
   45    48     1     0     0
SMALL
No Charge or Current Charge


@<TRIPOS>ATOM
      1 C4           1.9440    -2.0480     1.2030 ca         1 1QS      -0.013500
      2 C5           0.5850    -2.4070     1.2090 ca         1 1QS      -0.118500
      3 C6          -0.1090    -2.5960    -0.0020 ca         1 1QS      -0.053300
      4 C7          -1.5820    -2.9730     0.0090 c3         1 1QS       0.134300
      5 C13         -4.3680     1.9930    -0.0060 cc         1 1QS      -0.075000
      6 C17         -7.8070     0.9860     0.0150 cc         1 1QS      -0.277100
      7 C24          4.2380     1.1320     1.1810 ca         1 1QS      -0.081000
      8 C26          4.1060     3.2370    -0.0430 ca         1 1QS      -0.155000
      9 C28          4.2210     1.1270    -1.2580 ca         1 1QS      -0.081000
     10 C1           0.5700    -2.4160    -1.2220 ca         1 1QS      -0.118500
     11 C2           1.9280    -2.0570    -1.2350 ca         1 1QS      -0.013500
     12 C3           2.6230    -1.8760    -0.0210 ca         1 1QS      -0.266500
     13 N8          -2.4310    -1.7840     0.0060 ns         1 1QS      -0.503900
     14 C9          -3.8040    -1.8100     0.0130 c          1 1QS       0.628700
     15 O10         -4.4240    -2.8650     0.0220 o          1 1QS      -0.602100
     16 C11         -4.4510    -0.4620     0.0080 cd         1 1QS      -0.203600
     17 C12         -3.6990     0.7900    -0.0030 cd         1 1QS      -0.094000
     18 C14         -5.7840     1.9790     0.0000 cc         1 1QS      -0.073000
     19 N15         -6.6560     2.9700    -0.0020 nd         1 1QS      -0.283600
     20 C16         -7.9130     2.3650     0.0080 cd         1 1QS      -0.024400
     21 N18         -6.4560     0.8000     0.0100 na         1 1QS       0.118100
     22 C19         -5.8560    -0.4600     0.0140 cc         1 1QS      -0.031000
     23 S20          4.3630    -1.3930    -0.0340 sy         1 1QS       1.023000
     24 O21          4.9550    -1.8130     1.2440 o          1 1QS      -0.517000
     25 O22          4.9390    -1.8190    -1.3170 o          1 1QS      -0.517000
     26 C23          4.2760     0.4150    -0.0370 ca         1 1QS      -0.208500
     27 C25          4.1550     2.5350     1.1700 ca         1 1QS       0.186500
     28 C27          4.1390     2.5290    -1.2530 ca         1 1QS       0.186500
     29 F29          4.0890     3.2020    -2.4230 f          1 1QS      -0.165500
     30 F30          4.1210     3.2140     2.3380 f          1 1QS      -0.165500
     31 H1           2.4600    -1.9040     2.1500 ha         1 1QS       0.139000
     32 H2           0.0690    -2.5360     2.1580 ha         1 1QS       0.125500
     33 H3          -1.8160    -3.5830    -0.8740 h1         1 1QS       0.071200
     34 H4          -1.8060    -3.5730     0.9020 h1         1 1QS       0.071200
     35 H6          -8.5410     0.1870     0.0230 h4         1 1QS       0.237000
     36 H7           4.2710     0.6120     2.1360 ha         1 1QS       0.158500
     37 H8           4.0420     4.3210    -0.0450 ha         1 1QS       0.155000
     38 H9           4.2410     0.6010    -2.2110 ha         1 1QS       0.158500
     39 H10          0.0420    -2.5510    -2.1640 ha         1 1QS       0.125500
     40 H11          2.4330    -1.9180    -2.1900 ha         1 1QS       0.139000
     41 H12         -1.9870    -0.8760    -0.0010 hn         1 1QS       0.320500
     42 H13         -2.6140     0.8060    -0.0080 ha         1 1QS       0.120000
     43 H14         -8.8250     2.9600     0.0090 h4         1 1QS       0.230000
     44 H15         -6.5030    -1.3280     0.0220 h4         1 1QS       0.167000
     45 H5          -3.8370     2.9400    -0.0140 ha         1 1QS       0.147000
@<TRIPOS>BOND
     1     1     2 ar  
     2     1    12 ar  
     3     1    31 1   
     4     2     3 ar  
     5     2    32 1   
     6     3     4 1   
     7     3    10 ar  
     8     4    13 1   
     9     4    33 1   
    10     4    34 1   
    11     5    17 2   
    12     5    18 1   
    13     5    45 1   
    14     6    20 2   
    15     6    21 1   
    16     6    35 1   
    17     7    26 ar  
    18     7    27 ar  
    19     7    36 1   
    20     8    27 ar  
    21     8    28 ar  
    22     8    37 1   
    23     9    26 ar  
    24     9    28 ar  
    25     9    38 1   
    26    10    11 ar  
    27    10    39 1   
    28    11    12 ar  
    29    11    40 1   
    30    12    23 1   
    31    13    14 1   
    32    13    41 1   
    33    14    15 2   
    34    14    16 1   
    35    16    17 1   
    36    16    22 2   
    37    17    42 1   
    38    18    19 2   
    39    18    21 1   
    40    19    20 1   
    41    20    43 1   
    42    21    22 1   
    43    22    44 1   
    44    23    24 2   
    45    23    25 2   
    46    23    26 1   
    47    27    30 1   
    48    28    29 1   
@<TRIPOS>SUBSTRUCTURE
     1 1QS         1 TEMP              0 ****  ****    0 ROOT
