@<TRIPOS>MOLECULE
1QS
   45    48     1     0     0
SMALL
abcg2


@<TRIPOS>ATOM
      1 C4           2.2150    -2.2250     1.0480 ca         1 1QS      -0.013500
      2 C5           0.9100    -2.5030     1.4290 ca         1 1QS      -0.118500
      3 C6          -0.1500    -2.2630     0.5640 ca         1 1QS      -0.053300
      4 C7          -1.5560    -2.6240     0.9680 c3         1 1QS       0.134300
      5 C13         -4.7230     1.9860    -0.0700 cc         1 1QS      -0.075000
      6 C17         -7.9250     0.6150    -0.7170 cc         1 1QS      -0.277100
      7 C24          4.7620     0.6850     0.9540 ca         1 1QS      -0.081000
      8 C26          4.6950     3.0210     0.2970 ca         1 1QS      -0.155000
      9 C28          4.1030     1.2980    -1.3060 ca         1 1QS      -0.081000
     10 C1           0.1070    -1.7260    -0.6970 ca         1 1QS      -0.118500
     11 C2           1.4030    -1.4490    -1.0970 ca         1 1QS      -0.013500
     12 C3           2.4480    -1.7010    -0.2130 ca         1 1QS      -0.266500
     13 N8          -2.4770    -1.5350     0.7530 ns         1 1QS      -0.503900
     14 C9          -3.6650    -1.6770     0.1350 c          1 1QS       0.628700
     15 O10         -4.0780    -2.7470    -0.2850 o          1 1QS      -0.602100
     16 C11         -4.4710    -0.4260    -0.0160 cd         1 1QS      -0.203600
     17 C12         -3.9290     0.8930     0.0880 cd         1 1QS      -0.094000
     18 C14         -6.0960     1.8130    -0.3370 cc         1 1QS      -0.073000
     19 N15         -7.0600     2.6930    -0.5270 nd         1 1QS      -0.283600
     20 C16         -8.1770     1.9580    -0.7580 cd         1 1QS      -0.024400
     21 N18         -6.5800     0.5170    -0.4440 na         1 1QS       0.118100
     22 C19         -5.7960    -0.5780    -0.2970 cc         1 1QS      -0.031000
     23 S20          4.1100    -1.3700    -0.7230 sy         1 1QS       1.023000
     24 O21          5.0080    -2.1490     0.1200 o          1 1QS      -0.517000
     25 O22          4.1820    -1.4980    -2.1730 o          1 1QS      -0.517000
     26 C23          4.3440     0.3490    -0.3240 ca         1 1QS      -0.208500
     27 C25          4.9260     2.0290     1.2300 ca         1 1QS       0.186500
     28 C27          4.2840     2.6230    -0.9610 ca         1 1QS       0.186500
     29 F29          4.0610     3.5630    -1.8840 f          1 1QS      -0.165500
     30 F30          5.3300     2.3820     2.4500 f          1 1QS      -0.165500
     31 H1           3.0310    -2.4250     1.7310 ha         1 1QS       0.139000
     32 H2           0.7230    -2.9190     2.4120 ha         1 1QS       0.125500
     33 H3          -1.8950    -3.4740     0.3770 h1         1 1QS       0.071200
     34 H4          -1.5750    -2.9390     2.0160 h1         1 1QS       0.071200
     35 H6          -8.5510    -0.2490    -0.8510 h4         1 1QS       0.237000
     36 H7           4.9670    -0.0590     1.7110 ha         1 1QS       0.158500
     37 H8           4.8350     4.0650     0.5390 ha         1 1QS       0.155000
     38 H9           3.7910     1.0300    -2.3060 ha         1 1QS       0.158500
     39 H10         -0.7120    -1.5350    -1.3800 ha         1 1QS       0.125500
     40 H11          1.5870    -1.0590    -2.0880 ha         1 1QS       0.139000
     41 H12         -2.2610    -0.6600     1.2090 hn         1 1QS       0.320500
     42 H13         -2.8740     1.0400     0.2680 ha         1 1QS       0.120000
     43 H14         -9.1280     2.4260    -0.9510 h4         1 1QS       0.230000
     44 H15         -6.2790    -1.5350    -0.4070 h4         1 1QS       0.167000
     45 H5          -4.3230     2.9910    -0.0010 ha         1 1QS       0.147000
@<TRIPOS>BOND
     1     1     2 ar  
     2     1    12 ar  
     3     1    31 1   
     4     2     3 ar  
     5     2    32 1   
     6     3     4 1   
     7     3    10 ar  
     8     4    13 1   
     9     4    33 1   
    10     4    34 1   
    11     5    17 2   
    12     5    18 1   
    13     5    45 1   
    14     6    20 2   
    15     6    21 1   
    16     6    35 1   
    17     7    26 ar  
    18     7    27 ar  
    19     7    36 1   
    20     8    27 ar  
    21     8    28 ar  
    22     8    37 1   
    23     9    26 ar  
    24     9    28 ar  
    25     9    38 1   
    26    10    11 ar  
    27    10    39 1   
    28    11    12 ar  
    29    11    40 1   
    30    12    23 1   
    31    13    14 1   
    32    13    41 1   
    33    14    15 2   
    34    14    16 1   
    35    16    17 1   
    36    16    22 2   
    37    17    42 1   
    38    18    19 2   
    39    18    21 1   
    40    19    20 1   
    41    20    43 1   
    42    21    22 1   
    43    22    44 1   
    44    23    24 2   
    45    23    25 2   
    46    23    26 1   
    47    27    30 1   
    48    28    29 1   
@<TRIPOS>SUBSTRUCTURE
     1 1QS         1 TEMP              0 ****  ****    0 ROOT
