@<TRIPOS>MOLECULE
1QT
   81    85     1     0     0
SMALL
abcg2


@<TRIPOS>ATOM
      1 C2          -3.8600     2.1170     2.1890 cy         1 1QT      -0.094400
      2 C3          -3.3290     3.5510     1.9940 cy         1 1QT      -0.093400
      3 C4          -4.2370     3.6740     0.7540 cy         1 1QT      -0.094400
      4 C1          -4.3020     2.1430     0.7080 cy         1 1QT       0.171000
      5 C24         -3.2800     1.5260    -0.2260 c6         1 1QT      -0.131400
      6 O3          -5.6020     1.6560     0.4290 os         1 1QT      -0.338100
      7 C26         -5.7510     0.3500     0.1060 ca         1 1QT       0.147100
      8 C27         -7.0590    -0.1260     0.0360 ca         1 1QT      -0.149000
      9 C28         -7.3030    -1.4470    -0.2930 ca         1 1QT      -0.073000
     10 C29         -6.2540    -2.3260    -0.5580 ca         1 1QT      -0.121300
     11 C31         -6.5230    -3.7530    -0.9530 c3         1 1QT      -0.023100
     12 C32         -6.7650    -3.9060    -2.4530 c3         1 1QT      -0.087100
     13 C30         -4.9590    -1.8280    -0.4920 ca         1 1QT      -0.050000
     14 C25         -4.6800    -0.5040    -0.1630 ca         1 1QT      -0.162300
     15 C23         -3.2540     0.0070    -0.0730 c6         1 1QT       0.251800
     16 N2          -2.3820    -0.6770    -1.0050 n7         1 1QT      -0.892400
     17 C22         -1.0480    -1.0300    -0.5780 c3         1 1QT       0.151800
     18 C21         -0.0420     0.1030    -0.3470 c3         1 1QT       0.105300
     19 O2          -0.2810     0.8280     0.8430 oh         1 1QT      -0.662000
     20 C5           1.4110    -0.4010    -0.4020 c3         1 1QT       0.088700
     21 C20          1.7140    -1.4650     0.6670 c3         1 1QT      -0.046100
     22 C18          3.1320    -1.9560     0.5990 ca         1 1QT      -0.077300
     23 C19          4.1200    -1.3920     1.4010 ca         1 1QT      -0.103000
     24 C17          3.4960    -2.9530    -0.3010 ca         1 1QT      -0.103000
     25 C16          4.8180    -3.3680    -0.3900 ca         1 1QT      -0.103000
     26 C15          5.7910    -2.7830     0.4070 ca         1 1QT      -0.105000
     27 C14          5.4530    -1.7810     1.3140 ca         1 1QT      -0.074300
     28 C13          6.5110    -1.0850     2.1250 c3         1 1QT      -0.030100
     29 C12          7.3300    -0.1010     1.2820 c3         1 1QT      -0.070400
     30 C11          6.4810     0.9980     0.6590 c3         1 1QT      -0.080400
     31 C10          7.2680     1.9320    -0.2520 c3         1 1QT      -0.074400
     32 C9           6.4340     3.0250    -0.9250 c3         1 1QT      -0.074400
     33 C8           5.2370     2.4860    -1.7180 c3         1 1QT      -0.063400
     34 C7           3.9610     2.3700    -0.8760 c3         1 1QT      -0.157400
     35 C6           3.0560     1.2260    -1.2840 c          1 1QT       0.604100
     36 O1           2.9880     0.8240    -2.4380 o          1 1QT      -0.609100
     37 N1           2.3330     0.7040    -0.2760 ns         1 1QT      -0.498900
     38 H1          -3.1510     1.3450     2.4960 hc         1 1QT       0.061200
     39 H2          -4.7210     2.0960     2.8570 hc         1 1QT       0.061200
     40 H3          -3.5000     4.2580     2.8040 hc         1 1QT       0.054200
     41 H4          -2.2700     3.5660     1.7370 hc         1 1QT       0.054200
     42 H5          -5.2070     4.1020     1.0180 hc         1 1QT       0.061200
     43 H6          -3.8520     4.1850    -0.1300 hc         1 1QT       0.061200
     44 H7          -3.5280     1.7910    -1.2610 hc         1 1QT       0.065700
     45 H8          -2.2960     1.9400    -0.0080 hc         1 1QT       0.065700
     46 H9          -7.8820     0.5480     0.2440 ha         1 1QT       0.125000
     47 H10         -8.3270    -1.8000    -0.3400 ha         1 1QT       0.111000
     48 H11         -5.6800    -4.3830    -0.6580 hc         1 1QT       0.041700
     49 H12         -7.3930    -4.1270    -0.4070 hc         1 1QT       0.041700
     50 H13         -6.9670    -4.9460    -2.7150 hc         1 1QT       0.034033
     51 H14         -7.6180    -3.3080    -2.7780 hc         1 1QT       0.034033
     52 H15         -5.8950    -3.5790    -3.0250 hc         1 1QT       0.034033
     53 H16         -4.1220    -2.4820    -0.7080 ha         1 1QT       0.123000
     54 H17         -2.8890    -0.2280     0.9330 h1         1 1QT       0.054700
     55 H18         -2.3700    -0.2140    -1.9040 hn         1 1QT       0.432000
     56 H20         -1.1330    -1.6370     0.3310 h1         1 1QT       0.056200
     57 H21         -0.6290    -1.6950    -1.3390 h1         1 1QT       0.056200
     58 H22         -0.1550     0.8260    -1.1620 h1         1 1QT       0.083700
     59 H23         -0.4290     0.2100     1.5660 ho         1 1QT       0.439000
     60 H24          1.5740    -0.8420    -1.3870 h1         1 1QT       0.091700
     61 H25          1.5140    -1.0600     1.6640 hc         1 1QT       0.048700
     62 H26          1.0270    -2.3030     0.5300 hc         1 1QT       0.048700
     63 H27          3.8480    -0.6220     2.1160 ha         1 1QT       0.103000
     64 H28          2.7440    -3.4120    -0.9330 ha         1 1QT       0.111000
     65 H29          5.0890    -4.1530    -1.0850 ha         1 1QT       0.114000
     66 H30          6.8230    -3.1070     0.3220 ha         1 1QT       0.112000
     67 H31          6.0420    -0.5470     2.9540 hc         1 1QT       0.046200
     68 H32          7.1850    -1.8200     2.5740 hc         1 1QT       0.046200
     69 H33          8.1090     0.3430     1.9100 hc         1 1QT       0.039700
     70 H34          7.8530    -0.6520     0.4930 hc         1 1QT       0.039700
     71 H35          5.6740     0.5340     0.0860 hc         1 1QT       0.040700
     72 H36          5.9940     1.5740     1.4560 hc         1 1QT       0.040700
     73 H37          8.0800     2.3990     0.3150 hc         1 1QT       0.038200
     74 H38          7.7480     1.3320    -1.0320 hc         1 1QT       0.038200
     75 H39          6.0900     3.7450    -0.1750 hc         1 1QT       0.038200
     76 H40          7.0900     3.5870    -1.5940 hc         1 1QT       0.038200
     77 H41          5.0400     3.1320    -2.5750 hc         1 1QT       0.055200
     78 H42          5.5050     1.5140    -2.1410 hc         1 1QT       0.055200
     79 H43          4.2060     2.2790     0.1830 hc         1 1QT       0.055700
     80 H44          3.3790     3.2930    -0.9590 hc         1 1QT       0.055700
     81 H45          2.4210     1.1240     0.6360 hn         1 1QT       0.314500
@<TRIPOS>BOND
     1     1     2 1   
     2     1     4 1   
     3     1    38 1   
     4     1    39 1   
     5     2     3 1   
     6     2    40 1   
     7     2    41 1   
     8     3     4 1   
     9     3    42 1   
    10     3    43 1   
    11     4     5 1   
    12     4     6 1   
    13     5    15 1   
    14     5    44 1   
    15     5    45 1   
    16     6     7 1   
    17     7     8 ar  
    18     7    14 ar  
    19     8     9 ar  
    20     8    46 1   
    21     9    10 ar  
    22     9    47 1   
    23    10    11 1   
    24    10    13 ar  
    25    11    12 1   
    26    11    48 1   
    27    11    49 1   
    28    12    50 1   
    29    12    51 1   
    30    12    52 1   
    31    13    14 ar  
    32    13    53 1   
    33    14    15 1   
    34    15    16 1   
    35    15    54 1   
    36    16    17 1   
    37    16    55 1   
    38    17    18 1   
    39    17    56 1   
    40    17    57 1   
    41    18    19 1   
    42    18    20 1   
    43    18    58 1   
    44    19    59 1   
    45    20    21 1   
    46    20    37 1   
    47    20    60 1   
    48    21    22 1   
    49    21    61 1   
    50    21    62 1   
    51    22    23 ar  
    52    22    24 ar  
    53    23    27 ar  
    54    23    63 1   
    55    24    25 ar  
    56    24    64 1   
    57    25    26 ar  
    58    25    65 1   
    59    26    27 ar  
    60    26    66 1   
    61    27    28 1   
    62    28    29 1   
    63    28    67 1   
    64    28    68 1   
    65    29    30 1   
    66    29    69 1   
    67    29    70 1   
    68    30    31 1   
    69    30    71 1   
    70    30    72 1   
    71    31    32 1   
    72    31    73 1   
    73    31    74 1   
    74    32    33 1   
    75    32    75 1   
    76    32    76 1   
    77    33    34 1   
    78    33    77 1   
    79    33    78 1   
    80    34    35 1   
    81    34    79 1   
    82    34    80 1   
    83    35    36 2   
    84    35    37 1   
    85    37    81 1   
@<TRIPOS>SUBSTRUCTURE
     1 1QT         1 TEMP              0 ****  ****    0 ROOT
