@<TRIPOS>MOLECULE
1QT
   81    85     1     0     0
SMALL
No Charge or Current Charge


@<TRIPOS>ATOM
      1 C2          -4.0930     2.3970     1.9520 cy         1 1QT      -0.094400
      2 C3          -3.2840     3.7210     1.7340 cy         1 1QT      -0.093400
      3 C4          -4.1060     3.8930     0.4100 cy         1 1QT      -0.094400
      4 C1          -4.2640     2.3350     0.3940 cy         1 1QT       0.171000
      5 C24         -3.1330     1.5850    -0.3590 c6         1 1QT      -0.131400
      6 O3          -5.5310     1.8600    -0.0630 os         1 1QT      -0.338100
      7 C26         -5.7660     0.5090    -0.1920 ca         1 1QT       0.147100
      8 C27         -7.0940     0.0670    -0.2910 ca         1 1QT      -0.149000
      9 C28         -7.3770    -1.3030    -0.4140 ca         1 1QT      -0.073000
     10 C29         -6.3270    -2.2400    -0.4350 ca         1 1QT      -0.121300
     11 C31         -6.6280    -3.7280    -0.5630 c3         1 1QT      -0.023100
     12 C32         -6.5400    -4.2150    -2.0200 c3         1 1QT      -0.087100
     13 C30         -4.9940    -1.7930    -0.3440 ca         1 1QT      -0.050000
     14 C25         -4.6990    -0.4170    -0.2370 ca         1 1QT      -0.162300
     15 C23         -3.2440     0.0620    -0.1190 c6         1 1QT       0.251800
     16 N2          -2.3740    -0.6700    -1.0640 n7         1 1QT      -0.892400
     17 C22         -1.0480    -1.1750    -0.6100 c3         1 1QT       0.151800
     18 C21         -0.0200    -0.0580    -0.2290 c3         1 1QT       0.105300
     19 O2          -0.2770     0.4540     1.1000 oh         1 1QT      -0.662000
     20 C5           1.4650    -0.5380    -0.3430 c3         1 1QT       0.088700
     21 C20          1.8140    -1.7460     0.5760 c3         1 1QT      -0.046100
     22 C18          3.2670    -2.1910     0.4420 ca         1 1QT      -0.077300
     23 C19          4.2600    -1.6370     1.2740 ca         1 1QT      -0.103000
     24 C17          3.6330    -3.1360    -0.5340 ca         1 1QT      -0.103000
     25 C16          4.9780    -3.5150    -0.6820 ca         1 1QT      -0.103000
     26 C15          5.9660    -2.9380     0.1330 ca         1 1QT      -0.105000
     27 C14          5.6130    -1.9910     1.1130 ca         1 1QT      -0.074300
     28 C13          6.6910    -1.3040     1.9440 c3         1 1QT      -0.030100
     29 C12          7.3980    -0.1710     1.1620 c3         1 1QT      -0.070400
     30 C11          6.4490     0.9750     0.7330 c3         1 1QT      -0.080400
     31 C10          7.1230     2.0170    -0.1880 c3         1 1QT      -0.074400
     32 C9           6.2030     3.1770    -0.6550 c3         1 1QT      -0.074400
     33 C8           4.9040     2.7340    -1.3810 c3         1 1QT      -0.063400
     34 C7           3.6590     2.6450    -0.4560 c3         1 1QT      -0.157400
     35 C6           2.6240     1.6300    -0.9570 c          1 1QT       0.604100
     36 O1           2.0180     1.7690    -2.0100 o          1 1QT      -0.609100
     37 N1           2.4120     0.5650    -0.1130 ns         1 1QT      -0.498900
     38 H1          -3.5420     1.5720     2.4170 hc         1 1QT       0.061200
     39 H2          -5.0340     2.5330     2.4980 hc         1 1QT       0.061200
     40 H3          -3.4320     4.4990     2.4900 hc         1 1QT       0.054200
     41 H4          -2.2060     3.5810     1.5910 hc         1 1QT       0.054200
     42 H5          -5.0500     4.4360     0.5380 hc         1 1QT       0.061200
     43 H6          -3.5670     4.3320    -0.4360 hc         1 1QT       0.061200
     44 H7          -3.2270     1.7990    -1.4310 hc         1 1QT       0.065700
     45 H8          -2.1430     1.9480    -0.0620 hc         1 1QT       0.065700
     46 H9          -7.9060     0.7890    -0.2680 ha         1 1QT       0.125000
     47 H10         -8.4100    -1.6350    -0.4900 ha         1 1QT       0.111000
     48 H11         -5.9260    -4.3080     0.0490 hc         1 1QT       0.041700
     49 H12         -7.6290    -3.9500    -0.1730 hc         1 1QT       0.041700
     50 H13         -6.7620    -5.2870    -2.0800 hc         1 1QT       0.034033
     51 H14         -7.2590    -3.6780    -2.6510 hc         1 1QT       0.034033
     52 H15         -5.5340    -4.0490    -2.4240 hc         1 1QT       0.034033
     53 H16         -4.1850    -2.5200    -0.3600 ha         1 1QT       0.123000
     54 H17         -2.9260    -0.1620     0.9110 h1         1 1QT       0.054700
     55 H18         -2.2690    -0.1150    -1.9210 hn         1 1QT       0.432000
     56 H20         -1.1730    -1.8530     0.2460 h1         1 1QT       0.056200
     57 H21         -0.6090    -1.7750    -1.4190 h1         1 1QT       0.056200
     58 H22         -0.1460     0.7500    -0.9630 h1         1 1QT       0.083700
     59 H23         -0.1540    -0.2860     1.7300 ho         1 1QT       0.439000
     60 H24          1.6160    -0.8730    -1.3790 h1         1 1QT       0.091700
     61 H25          1.6080    -1.4840     1.6210 hc         1 1QT       0.048700
     62 H26          1.1540    -2.5890     0.3410 hc         1 1QT       0.048700
     63 H27          3.9850    -0.9010     2.0270 ha         1 1QT       0.103000
     64 H28          2.8780    -3.5730    -1.1840 ha         1 1QT       0.111000
     65 H29          5.2570    -4.2430    -1.4400 ha         1 1QT       0.114000
     66 H30          7.0090    -3.2170    -0.0050 ha         1 1QT       0.112000
     67 H31          6.2630    -0.8920     2.8670 hc         1 1QT       0.046200
     68 H32          7.4420    -2.0380     2.2600 hc         1 1QT       0.046200
     69 H33          8.2030     0.2430     1.7810 hc         1 1QT       0.039700
     70 H34          7.8730    -0.6010     0.2720 hc         1 1QT       0.039700
     71 H35          5.5960     0.5430     0.1990 hc         1 1QT       0.040700
     72 H36          6.0540     1.4730     1.6270 hc         1 1QT       0.040700
     73 H37          7.9890     2.4460     0.3310 hc         1 1QT       0.038200
     74 H38          7.5150     1.5040    -1.0750 hc         1 1QT       0.038200
     75 H39          5.9530     3.8180     0.1990 hc         1 1QT       0.038200
     76 H40          6.7840     3.8040    -1.3430 hc         1 1QT       0.038200
     77 H41          4.6830     3.4420    -2.1890 hc         1 1QT       0.055200
     78 H42          5.0780     1.7670    -1.8700 hc         1 1QT       0.055200
     79 H43          3.9680     2.3760     0.5600 hc         1 1QT       0.055700
     80 H44          3.1880     3.6350    -0.4180 hc         1 1QT       0.055700
     81 H45          2.9590     0.5510     0.7380 hn         1 1QT       0.314500
@<TRIPOS>BOND
     1     1     2 1   
     2     1     4 1   
     3     1    38 1   
     4     1    39 1   
     5     2     3 1   
     6     2    40 1   
     7     2    41 1   
     8     3     4 1   
     9     3    42 1   
    10     3    43 1   
    11     4     5 1   
    12     4     6 1   
    13     5    15 1   
    14     5    44 1   
    15     5    45 1   
    16     6     7 1   
    17     7     8 ar  
    18     7    14 ar  
    19     8     9 ar  
    20     8    46 1   
    21     9    10 ar  
    22     9    47 1   
    23    10    11 1   
    24    10    13 ar  
    25    11    12 1   
    26    11    48 1   
    27    11    49 1   
    28    12    50 1   
    29    12    51 1   
    30    12    52 1   
    31    13    14 ar  
    32    13    53 1   
    33    14    15 1   
    34    15    16 1   
    35    15    54 1   
    36    16    17 1   
    37    16    55 1   
    38    17    18 1   
    39    17    56 1   
    40    17    57 1   
    41    18    19 1   
    42    18    20 1   
    43    18    58 1   
    44    19    59 1   
    45    20    21 1   
    46    20    37 1   
    47    20    60 1   
    48    21    22 1   
    49    21    61 1   
    50    21    62 1   
    51    22    23 ar  
    52    22    24 ar  
    53    23    27 ar  
    54    23    63 1   
    55    24    25 ar  
    56    24    64 1   
    57    25    26 ar  
    58    25    65 1   
    59    26    27 ar  
    60    26    66 1   
    61    27    28 1   
    62    28    29 1   
    63    28    67 1   
    64    28    68 1   
    65    29    30 1   
    66    29    69 1   
    67    29    70 1   
    68    30    31 1   
    69    30    71 1   
    70    30    72 1   
    71    31    32 1   
    72    31    73 1   
    73    31    74 1   
    74    32    33 1   
    75    32    75 1   
    76    32    76 1   
    77    33    34 1   
    78    33    77 1   
    79    33    78 1   
    80    34    35 1   
    81    34    79 1   
    82    34    80 1   
    83    35    36 2   
    84    35    37 1   
    85    37    81 1   
@<TRIPOS>SUBSTRUCTURE
     1 1QT         1 TEMP              0 ****  ****    0 ROOT
