@<TRIPOS>MOLECULE
1QU
   81    85     1     0     0
SMALL
No Charge or Current Charge


@<TRIPOS>ATOM
      1 O1          -2.5970     2.8000    -2.6100 o          1 1QU      -0.548000
      2 C1          -3.3450     3.5380    -1.9850 c          1 1QU       0.569000
      3 C2          -3.5160     5.0480    -2.1320 c5         1 1QU      -0.166400
      4 C3          -3.7050     5.5230    -0.6700 c5         1 1QU      -0.093400
      5 C4          -4.6290     4.3920    -0.1280 c5         1 1QU       0.105000
      6 N1          -4.0890     3.2030    -0.8340 n          1 1QU      -0.333000
      7 C33         -4.1970     1.9120    -0.2560 cc         1 1QU      -0.090600
      8 C13         -3.1000     1.0640    -0.2620 cd         1 1QU      -0.062000
      9 C5          -5.4920     1.4900     0.3750 c          1 1QU       0.554200
     10 O4          -6.4880     2.2080     0.4010 o          1 1QU      -0.551000
     11 N2          -5.5130     0.1870     0.9230 n          1 1QU      -0.255000
     12 C6          -6.7860    -0.2830     1.5790 c5         1 1QU       0.076700
     13 C7          -6.5160    -0.3920     3.1130 c5         1 1QU      -0.094400
     14 C8          -7.4400    -1.5700     3.5020 c5         1 1QU      -0.082900
     15 C9          -7.0480    -2.5980     2.4110 c5         1 1QU      -0.082900
     16 C10         -7.1370    -1.7430     1.1120 c5         1 1QU      -0.094400
     17 C11         -4.3760    -0.6280     0.9100 cc         1 1QU       0.032600
     18 C12         -3.1770    -0.2490     0.3390 cd         1 1QU      -0.275200
     19 C26         -2.0600    -1.2360     0.3950 c          1 1QU       0.645300
     20 O2          -2.1600    -2.3360     0.9200 o          1 1QU      -0.617100
     21 N3          -0.8960    -0.8080    -0.1990 ns         1 1QU      -0.491900
     22 C27          0.3090    -1.6280    -0.3980 c3         1 1QU       0.081700
     23 C31          0.4020    -2.0910    -1.8790 c3         1 1QU      -0.051100
     24 C20         -0.8740    -2.7700    -2.3690 ca         1 1QU      -0.092300
     25 C21         -1.8280    -2.0460    -3.1120 ca         1 1QU      -0.101000
     26 C22         -3.0130    -2.6680    -3.5430 ca         1 1QU      -0.103500
     27 C23         -3.2510    -4.0180    -3.2340 ca         1 1QU      -0.110000
     28 C24         -2.3040    -4.7450    -2.4940 ca         1 1QU      -0.103500
     29 C25         -1.1190    -4.1230    -2.0620 ca         1 1QU      -0.101000
     30 C28          1.5690    -0.8770     0.1350 c3         1 1QU       0.150300
     31 O3           1.7510     0.3770    -0.5640 oh         1 1QU      -0.659000
     32 C29          2.8740    -1.7250     0.0750 c3         1 1QU       0.129800
     33 N4           3.9980    -1.0230     0.7330 n7         1 1QU      -0.862400
     34 C30          5.3140    -1.6700     0.5950 c3         1 1QU       0.206100
     35 C14          6.3890    -0.8340     1.2750 ca         1 1QU      -0.095300
     36 C15          7.2330    -0.0010     0.5130 ca         1 1QU      -0.060000
     37 C19          6.5480    -0.8890     2.6720 ca         1 1QU      -0.054000
     38 C18          7.5380    -0.1180     3.3010 ca         1 1QU      -0.122000
     39 C17          8.3790     0.7110     2.5390 ca         1 1QU      -0.056000
     40 C16          8.2390     0.7720     1.1350 ca         1 1QU      -0.199300
     41 C32          9.1440     1.6830     0.2970 c3         1 1QU       0.356300
     42 F2           8.5800     2.8970     0.1090 f          1 1QU      -0.115000
     43 F3          10.3480     1.8930     0.8790 f          1 1QU      -0.115000
     44 F1           9.3940     1.1690    -0.9290 f          1 1QU      -0.115000
     45 H1          -2.6810     5.5000    -2.6770 hc         1 1QU       0.078700
     46 H2          -4.4480     5.2280    -2.6800 hc         1 1QU       0.078700
     47 H3          -2.7500     5.5460    -0.1330 hc         1 1QU       0.057200
     48 H4          -4.1580     6.5180    -0.5920 hc         1 1QU       0.057200
     49 H5          -4.5660     4.2970     0.9650 h1         1 1QU       0.059700
     50 H6          -5.6770     4.5680    -0.4060 h1         1 1QU       0.059700
     51 H7          -2.1650     1.4070    -0.6880 ha         1 1QU       0.192000
     52 H8          -7.6430     0.3770     1.3830 h1         1 1QU       0.100700
     53 H9          -5.4720    -0.6190     3.3600 hc         1 1QU       0.057200
     54 H10         -6.7720     0.5340     3.6410 hc         1 1QU       0.057200
     55 H11         -7.2450    -1.9390     4.5150 hc         1 1QU       0.050700
     56 H12         -8.5020    -1.2970     3.4470 hc         1 1QU       0.050700
     57 H13         -6.0360    -2.9880     2.5740 hc         1 1QU       0.050700
     58 H14         -7.7240    -3.4600     2.3870 hc         1 1QU       0.050700
     59 H15         -8.1600    -1.7640     0.7170 hc         1 1QU       0.057200
     60 H16         -6.5010    -2.1300     0.3080 hc         1 1QU       0.057200
     61 H17         -4.5320    -1.5830     1.3990 h4         1 1QU       0.230000
     62 H18         -0.8920     0.1270    -0.5800 hn         1 1QU       0.319500
     63 H19          0.2060    -2.5360     0.2130 h1         1 1QU       0.092700
     64 H20          0.6290    -1.2300    -2.5190 hc         1 1QU       0.046700
     65 H21          1.2440    -2.7840    -1.9930 hc         1 1QU       0.046700
     66 H22         -1.6560    -0.9990    -3.3500 ha         1 1QU       0.109000
     67 H23         -3.7470    -2.1030    -4.1130 ha         1 1QU       0.120000
     68 H24         -4.1680    -4.4990    -3.5660 ha         1 1QU       0.111000
     69 H25         -2.4880    -5.7900    -2.2530 ha         1 1QU       0.120000
     70 H26         -0.3940    -4.6910    -1.4840 ha         1 1QU       0.109000
     71 H27          1.3790    -0.6740     1.1990 h1         1 1QU       0.101700
     72 H28          2.0160     0.1610    -1.4830 ho         1 1QU       0.436000
     73 H29          2.6960    -2.6930     0.5630 h1         1 1QU       0.037200
     74 H30          3.1210    -1.9280    -0.9760 h1         1 1QU       0.037200
     75 H31          4.0620    -0.0830     0.3230 hn         1 1QU       0.424000
     76 H33          5.2990    -2.6710     1.0480 h1         1 1QU       0.039200
     77 H34          5.5710    -1.7960    -0.4660 h1         1 1QU       0.039200
     78 H35          7.1010     0.0450    -0.5660 ha         1 1QU       0.124000
     79 H36          5.8980    -1.5260     3.2690 ha         1 1QU       0.133000
     80 H37          7.6530    -0.1600     4.3810 ha         1 1QU       0.122000
     81 H38          9.1360     1.3070     3.0460 ha         1 1QU       0.131000
@<TRIPOS>BOND
     1     1     2 2   
     2     2     3 1   
     3     2     6 1   
     4     3     4 1   
     5     3    45 1   
     6     3    46 1   
     7     4     5 1   
     8     4    47 1   
     9     4    48 1   
    10     5     6 1   
    11     5    49 1   
    12     5    50 1   
    13     6     7 1   
    14     7     8 2   
    15     7     9 1   
    16     8    18 1   
    17     8    51 1   
    18     9    10 2   
    19     9    11 1   
    20    11    12 1   
    21    11    17 1   
    22    12    13 1   
    23    12    16 1   
    24    12    52 1   
    25    13    14 1   
    26    13    53 1   
    27    13    54 1   
    28    14    15 1   
    29    14    55 1   
    30    14    56 1   
    31    15    16 1   
    32    15    57 1   
    33    15    58 1   
    34    16    59 1   
    35    16    60 1   
    36    17    18 2   
    37    17    61 1   
    38    18    19 1   
    39    19    20 2   
    40    19    21 1   
    41    21    22 1   
    42    21    62 1   
    43    22    23 1   
    44    22    30 1   
    45    22    63 1   
    46    23    24 1   
    47    23    64 1   
    48    23    65 1   
    49    24    25 ar  
    50    24    29 ar  
    51    25    26 ar  
    52    25    66 1   
    53    26    27 ar  
    54    26    67 1   
    55    27    28 ar  
    56    27    68 1   
    57    28    29 ar  
    58    28    69 1   
    59    29    70 1   
    60    30    31 1   
    61    30    32 1   
    62    30    71 1   
    63    31    72 1   
    64    32    33 1   
    65    32    73 1   
    66    32    74 1   
    67    33    34 1   
    68    33    75 1   
    69    34    35 1   
    70    34    76 1   
    71    34    77 1   
    72    35    36 ar  
    73    35    37 ar  
    74    36    40 ar  
    75    36    78 1   
    76    37    38 ar  
    77    37    79 1   
    78    38    39 ar  
    79    38    80 1   
    80    39    40 ar  
    81    39    81 1   
    82    40    41 1   
    83    41    42 1   
    84    41    43 1   
    85    41    44 1   
@<TRIPOS>SUBSTRUCTURE
     1 1QU         1 TEMP              0 ****  ****    0 ROOT
