@<TRIPOS>MOLECULE
1QU
   81    85     1     0     0
SMALL
abcg2


@<TRIPOS>ATOM
      1 O1          -4.1080     1.8880    -3.2050 o          1 1QU      -0.548000
      2 C1          -4.4000     2.8520    -2.5240 c          1 1QU       0.569000
      3 C2          -4.7050     4.2510    -3.0090 c5         1 1QU      -0.166400
      4 C3          -4.5890     5.1100    -1.7560 c5         1 1QU      -0.093400
      5 C4          -4.9470     4.1430    -0.6270 c5         1 1QU       0.105000
      6 N1          -4.5340     2.8530    -1.1700 n          1 1QU      -0.333000
      7 C33         -4.3960     1.6970    -0.3900 cc         1 1QU      -0.090600
      8 C13         -3.2070     1.0500    -0.3080 cd         1 1QU      -0.062000
      9 C5          -5.5790     1.1970     0.2770 c          1 1QU       0.554200
     10 O4          -6.6760     1.7340     0.2150 o          1 1QU      -0.551000
     11 N2          -5.3800     0.0310     1.0160 n          1 1QU      -0.255000
     12 C6          -6.5130    -0.5420     1.7600 c5         1 1QU       0.076700
     13 C7          -6.3270    -0.4170     3.2840 c5         1 1QU      -0.094400
     14 C8          -6.9520    -1.6920     3.8450 c5         1 1QU      -0.082900
     15 C9          -6.5430    -2.7520     2.8260 c5         1 1QU      -0.082900
     16 C10         -6.7440    -2.0480     1.4820 c5         1 1QU      -0.094400
     17 C11         -4.1960    -0.6050     1.0670 cc         1 1QU       0.032600
     18 C12         -3.0820    -0.1510     0.4280 cd         1 1QU      -0.275200
     19 C26         -1.8610    -0.9980     0.4770 c          1 1QU       0.645300
     20 O2          -1.9090    -2.1380     0.9190 o          1 1QU      -0.617100
     21 N3          -0.7280    -0.4400     0.0090 ns         1 1QU      -0.491900
     22 C27          0.4370    -1.2070    -0.3730 c3         1 1QU       0.081700
     23 C31          0.4500    -1.4190    -1.9010 c3         1 1QU      -0.051100
     24 C20         -0.8590    -1.9750    -2.3840 ca         1 1QU      -0.092300
     25 C21         -1.8930    -1.1300    -2.7800 ca         1 1QU      -0.101000
     26 C22         -3.1380    -1.6360    -3.1230 ca         1 1QU      -0.103500
     27 C23         -3.3630    -3.0050    -3.0950 ca         1 1QU      -0.110000
     28 C24         -2.3340    -3.8610    -2.7220 ca         1 1QU      -0.103500
     29 C25         -1.0950    -3.3470    -2.3650 ca         1 1QU      -0.101000
     30 C28          1.6940    -0.5180     0.1720 c3         1 1QU       0.150300
     31 O3           1.7860     0.8240    -0.2660 oh         1 1QU      -0.659000
     32 C29          2.9670    -1.2990    -0.1170 c3         1 1QU       0.129800
     33 N4           4.0760    -0.7560     0.6410 n7         1 1QU      -0.862400
     34 C30          5.3210    -1.4550     0.3980 c3         1 1QU       0.206100
     35 C14          6.4190    -0.9210     1.2790 ca         1 1QU      -0.095300
     36 C15          7.6360    -0.5300     0.7420 ca         1 1QU      -0.060000
     37 C19          6.2290    -0.8170     2.6570 ca         1 1QU      -0.054000
     38 C18          7.2390    -0.3420     3.4750 ca         1 1QU      -0.122000
     39 C17          8.4600     0.0440     2.9340 ca         1 1QU      -0.056000
     40 C16          8.6540    -0.0520     1.5650 ca         1 1QU      -0.199300
     41 C32          9.9360     0.3870     0.9320 c3         1 1QU       0.356300
     42 F2           9.7710     1.5030     0.2040 f          1 1QU      -0.115000
     43 F3          10.8930     0.6470     1.8270 f          1 1QU      -0.115000
     44 F1          10.4240    -0.5390     0.0940 f          1 1QU      -0.115000
     45 H1          -4.0360     4.5430    -3.8180 hc         1 1QU       0.078700
     46 H2          -5.7230     4.2540    -3.4100 hc         1 1QU       0.078700
     47 H3          -3.5640     5.4630    -1.6350 hc         1 1QU       0.057200
     48 H4          -5.2440     5.9790    -1.7670 hc         1 1QU       0.057200
     49 H5          -4.4100     4.3580     0.2970 h1         1 1QU       0.059700
     50 H6          -6.0160     4.1510    -0.4120 h1         1 1QU       0.059700
     51 H7          -2.3640     1.4780    -0.8340 ha         1 1QU       0.192000
     52 H8          -7.3850     0.0210     1.4450 h1         1 1QU       0.100700
     53 H9          -5.2630    -0.3940     3.5340 hc         1 1QU       0.057200
     54 H10         -6.7700     0.4990     3.6750 hc         1 1QU       0.057200
     55 H11         -6.6140    -1.9120     4.8580 hc         1 1QU       0.050700
     56 H12         -8.0410    -1.6020     3.8750 hc         1 1QU       0.050700
     57 H13         -5.4910    -3.0160     2.9710 hc         1 1QU       0.050700
     58 H14         -7.1210    -3.6730     2.9050 hc         1 1QU       0.050700
     59 H15         -7.7720    -2.1840     1.1430 hc         1 1QU       0.057200
     60 H16         -6.1050    -2.4370     0.6880 hc         1 1QU       0.057200
     61 H17         -4.1650    -1.5160     1.6490 h4         1 1QU       0.230000
     62 H18         -0.7340     0.5220    -0.2900 hn         1 1QU       0.319500
     63 H19          0.3590    -2.1800     0.1110 h1         1 1QU       0.092700
     64 H20          0.6550    -0.4700    -2.4070 hc         1 1QU       0.046700
     65 H21          1.2640    -2.1000    -2.1580 hc         1 1QU       0.046700
     66 H22         -1.7310    -0.0580    -2.8160 ha         1 1QU       0.109000
     67 H23         -3.9300    -0.9530    -3.4000 ha         1 1QU       0.120000
     68 H24         -4.3320    -3.4050    -3.3640 ha         1 1QU       0.111000
     69 H25         -2.4980    -4.9310    -2.7050 ha         1 1QU       0.120000
     70 H26         -0.3010    -4.0210    -2.0630 ha         1 1QU       0.109000
     71 H27          1.5780    -0.4630     1.2580 h1         1 1QU       0.101700
     72 H28          2.0430     0.8330    -1.1940 ho         1 1QU       0.436000
     73 H29          2.8170    -2.3410     0.1830 h1         1 1QU       0.037200
     74 H30          3.1640    -1.3170    -1.2020 h1         1 1QU       0.037200
     75 H31          4.1960     0.2210     0.4030 hn         1 1QU       0.424000
     76 H33          5.1630    -2.5140     0.6280 h1         1 1QU       0.039200
     77 H34          5.6440    -1.4170    -0.6530 h1         1 1QU       0.039200
     78 H35          7.7830    -0.6000    -0.3300 ha         1 1QU       0.124000
     79 H36          5.2800    -1.1110     3.0870 ha         1 1QU       0.133000
     80 H37          7.0820    -0.2710     4.5430 ha         1 1QU       0.122000
     81 H38          9.2380     0.4140     3.5870 ha         1 1QU       0.131000
@<TRIPOS>BOND
     1     1     2 2   
     2     2     3 1   
     3     2     6 1   
     4     3     4 1   
     5     3    45 1   
     6     3    46 1   
     7     4     5 1   
     8     4    47 1   
     9     4    48 1   
    10     5     6 1   
    11     5    49 1   
    12     5    50 1   
    13     6     7 1   
    14     7     8 2   
    15     7     9 1   
    16     8    18 1   
    17     8    51 1   
    18     9    10 2   
    19     9    11 1   
    20    11    12 1   
    21    11    17 1   
    22    12    13 1   
    23    12    16 1   
    24    12    52 1   
    25    13    14 1   
    26    13    53 1   
    27    13    54 1   
    28    14    15 1   
    29    14    55 1   
    30    14    56 1   
    31    15    16 1   
    32    15    57 1   
    33    15    58 1   
    34    16    59 1   
    35    16    60 1   
    36    17    18 2   
    37    17    61 1   
    38    18    19 1   
    39    19    20 2   
    40    19    21 1   
    41    21    22 1   
    42    21    62 1   
    43    22    23 1   
    44    22    30 1   
    45    22    63 1   
    46    23    24 1   
    47    23    64 1   
    48    23    65 1   
    49    24    25 ar  
    50    24    29 ar  
    51    25    26 ar  
    52    25    66 1   
    53    26    27 ar  
    54    26    67 1   
    55    27    28 ar  
    56    27    68 1   
    57    28    29 ar  
    58    28    69 1   
    59    29    70 1   
    60    30    31 1   
    61    30    32 1   
    62    30    71 1   
    63    31    72 1   
    64    32    33 1   
    65    32    73 1   
    66    32    74 1   
    67    33    34 1   
    68    33    75 1   
    69    34    35 1   
    70    34    76 1   
    71    34    77 1   
    72    35    36 ar  
    73    35    37 ar  
    74    36    40 ar  
    75    36    78 1   
    76    37    38 ar  
    77    37    79 1   
    78    38    39 ar  
    79    38    80 1   
    80    39    40 ar  
    81    39    81 1   
    82    40    41 1   
    83    41    42 1   
    84    41    43 1   
    85    41    44 1   
@<TRIPOS>SUBSTRUCTURE
     1 1QU         1 TEMP              0 ****  ****    0 ROOT
