@<TRIPOS>MOLECULE
1QV
   19    20     1     0     0
SMALL
No Charge or Current Charge


@<TRIPOS>ATOM
      1 C01          2.9880    -0.8710    -0.0020 ca         1 1QV       0.100000
      2 C02          3.1180     0.5330    -0.0410 ca         1 1QV       0.143000
      3 C03          1.9660     1.3450    -0.0500 ca         1 1QV       0.166000
      4 C04          0.7020     0.7350    -0.0200 ca         1 1QV      -0.220000
      5 C05          0.5590    -0.6390     0.0170 ca         1 1QV       0.053400
      6 C06          1.7070    -1.4630     0.0270 ca         1 1QV       0.219000
      7 C07         -1.5740    -0.0380     0.0240 cc         1 1QV       0.170600
      8 F01          4.0950    -1.6530     0.0070 f          1 1QV      -0.134000
      9 F02          4.3480     1.1000    -0.0690 f          1 1QV      -0.131000
     10 F03          2.0710     2.6930    -0.0860 f          1 1QV      -0.138000
     11 F04          1.5820    -2.8110     0.0640 f          1 1QV      -0.122000
     12 N01         -0.7520    -1.1110     0.0440 nd         1 1QV      -0.400100
     13 N02         -3.8020    -0.2120     1.6370 n8         1 1QV      -1.090100
     14 O01         -3.9870     1.1220    -0.3920 o          1 1QV      -0.523500
     15 O02         -3.8540    -1.4320    -0.4620 o          1 1QV      -0.523500
     16 S01         -3.3920    -0.1400     0.0470 sy         1 1QV       1.155400
     17 S02         -0.8430     1.5750    -0.0250 ss         1 1QV       0.244800
     18 H1          -4.6050     0.4150     1.6420 hn         1 1QV       0.515000
     19 H2          -4.2560    -1.1250     1.6540 hn         1 1QV       0.515000
@<TRIPOS>BOND
     1     1     2 ar  
     2     1     6 ar  
     3     1     8 1   
     4     2     3 ar  
     5     2     9 1   
     6     3     4 ar  
     7     3    10 1   
     8     4     5 ar  
     9     4    17 1   
    10     5     6 ar  
    11     5    12 1   
    12     6    11 1   
    13     7    12 2   
    14     7    16 1   
    15     7    17 1   
    16    13    16 1   
    17    13    18 1   
    18    13    19 1   
    19    14    16 2   
    20    15    16 2   
@<TRIPOS>SUBSTRUCTURE
     1 1QV         1 TEMP              0 ****  ****    0 ROOT
