@<TRIPOS>MOLECULE
1QV
   19    20     1     0     0
SMALL
abcg2


@<TRIPOS>ATOM
      1 C01          2.8450    -0.8680     0.0750 ca         1 1QV       0.100000
      2 C02          3.0090     0.5170    -0.0230 ca         1 1QV       0.143000
      3 C03          1.9170     1.3500    -0.0960 ca         1 1QV       0.166000
      4 C04          0.6530     0.7880    -0.0680 ca         1 1QV      -0.220000
      5 C05          0.4760    -0.6010     0.0290 ca         1 1QV       0.053400
      6 C06          1.5920    -1.4310     0.1010 ca         1 1QV       0.219000
      7 C07         -1.5990     0.0020    -0.0430 cc         1 1QV       0.170600
      8 F01          3.9270    -1.6330     0.1450 f          1 1QV      -0.134000
      9 F02          4.2370     1.0150    -0.0420 f          1 1QV      -0.131000
     10 F03          2.0710     2.6640    -0.1910 f          1 1QV      -0.138000
     11 F04          1.4490    -2.7440     0.1950 f          1 1QV      -0.122000
     12 N01         -0.8270    -1.0120     0.0410 nd         1 1QV      -0.400100
     13 N02         -3.7390    -0.4080     1.5080 n8         1 1QV      -1.090100
     14 O01         -3.8170     1.2110    -0.4000 o          1 1QV      -0.523500
     15 O02         -3.7080    -1.2870    -0.8310 o          1 1QV      -0.523500
     16 S01         -3.3800    -0.1230    -0.0390 sy         1 1QV       1.155400
     17 S02         -0.8780     1.5730    -0.1550 ss         1 1QV       0.244800
     18 H1          -4.1240     0.3510     2.0520 hn         1 1QV       0.515000
     19 H2          -4.0340    -1.3420     1.7570 hn         1 1QV       0.515000
@<TRIPOS>BOND
     1     1     2 ar  
     2     1     6 ar  
     3     1     8 1   
     4     2     3 ar  
     5     2     9 1   
     6     3     4 ar  
     7     3    10 1   
     8     4     5 ar  
     9     4    17 1   
    10     5     6 ar  
    11     5    12 1   
    12     6    11 1   
    13     7    12 2   
    14     7    16 1   
    15     7    17 1   
    16    13    16 1   
    17    13    18 1   
    18    13    19 1   
    19    14    16 2   
    20    15    16 2   
@<TRIPOS>SUBSTRUCTURE
     1 1QV         1 TEMP              0 ****  ****    0 ROOT
