@<TRIPOS>MOLECULE
1QW
   49    48     1     0     0
SMALL
No Charge or Current Charge


@<TRIPOS>ATOM
      1 CH1          5.3030     0.5520     0.3390 c3         1 1QW       0.128600
      2 CH2          5.9280     0.0020    -0.9700 c3         1 1QW       0.164300
      3 CH3          7.2020     0.7870    -1.3780 c3         1 1QW       0.128600
      4 OH1          4.0440    -0.1140     0.5730 os         1 1QW      -0.434100
      5 OH2          6.2740    -1.3900    -0.8250 oh         1 1QW      -0.625000
      6 OH3          7.7850     0.2090    -2.5590 oh         1 1QW      -0.642000
      7 C1           3.3380     0.2180     1.6990 c          1 1QW       0.592100
      8 O1           3.6880     1.0620     2.5130 o          1 1QW      -0.491000
      9 C2           2.0200    -0.5550     1.7940 c3         1 1QW      -0.137400
     10 C3           0.8520     0.2460     1.1710 c3         1 1QW      -0.068400
     11 C4          -0.4970    -0.5040     1.2390 c3         1 1QW      -0.075400
     12 C5          -1.6640     0.2960     0.6190 c3         1 1QW      -0.074400
     13 C6          -3.0130    -0.4540     0.6870 c3         1 1QW      -0.074400
     14 C7          -4.1800     0.3460     0.0670 c3         1 1QW      -0.074400
     15 C8          -5.5290    -0.4040     0.1360 c3         1 1QW      -0.074400
     16 C9          -6.6960     0.3960    -0.4840 c3         1 1QW      -0.074400
     17 C10         -8.0450    -0.3540    -0.4160 c3         1 1QW      -0.075400
     18 C11         -9.2120     0.4450    -1.0350 c3         1 1QW      -0.075400
     19 C12        -10.5580    -0.3020    -0.9680 c3         1 1QW      -0.088100
     20 H1           5.9960     0.3840     1.1730 h1         1 1QW       0.050700
     21 H2           5.1480     1.6340     0.2360 h1         1 1QW       0.050700
     22 H3           5.1890     0.1290    -1.7740 h1         1 1QW       0.097700
     23 H4           6.9330     1.8350    -1.5630 h1         1 1QW       0.021700
     24 H5           7.9240     0.7690    -0.5500 h1         1 1QW       0.021700
     25 H6           6.9410    -1.5550    -1.5290 ho         1 1QW       0.436000
     26 H7           8.5560     0.7680    -2.8060 ho         1 1QW       0.445000
     27 H8           2.1150    -1.4920     1.2330 hc         1 1QW       0.073700
     28 H9           1.7970    -0.7560     2.8480 hc         1 1QW       0.073700
     29 H10          0.7570     1.2080     1.6910 hc         1 1QW       0.053700
     30 H11          1.0870     0.4710     0.1230 hc         1 1QW       0.053700
     31 H12         -0.4020    -1.4650     0.7180 hc         1 1QW       0.038200
     32 H13         -1.7590     1.2570     1.1400 hc         1 1QW       0.039700
     33 H14         -2.9180    -1.4150     0.1660 hc         1 1QW       0.037700
     34 H15         -4.2750     1.3070     0.5880 hc         1 1QW       0.037700
     35 H16         -5.4340    -1.3650    -0.3850 hc         1 1QW       0.037200
     36 H17         -5.7630    -0.6290     1.1840 hc         1 1QW       0.037200
     37 H18         -6.7910     1.3570     0.0370 hc         1 1QW       0.036700
     38 H19         -6.4620     0.6210    -1.5320 hc         1 1QW       0.036700
     39 H20         -7.9500    -1.3150    -0.9370 hc         1 1QW       0.036700
     40 H21         -9.3120     1.4060    -0.5160 hc         1 1QW       0.036700
     41 H22        -10.5020    -1.2530    -1.5100 hc         1 1QW       0.031367
     42 H23        -10.8340    -0.5110     0.0730 hc         1 1QW       0.031367
     43 H24        -11.3540     0.3030    -1.4180 hc         1 1QW       0.031367
     44 H25         -3.2470    -0.6790     1.7350 hc         1 1QW       0.037700
     45 H26         -3.9460     0.5710    -0.9810 hc         1 1QW       0.037700
     46 H27         -8.2790    -0.5790     0.6320 hc         1 1QW       0.036700
     47 H28         -8.9830     0.6710    -2.0840 hc         1 1QW       0.036700
     48 H29         -0.7320    -0.7290     2.2870 hc         1 1QW       0.038200
     49 H30         -1.4300     0.5210    -0.4290 hc         1 1QW       0.039700
@<TRIPOS>BOND
     1     1     2 1   
     2     1     4 1   
     3     1    20 1   
     4     1    21 1   
     5     2     3 1   
     6     2     5 1   
     7     2    22 1   
     8     3     6 1   
     9     3    23 1   
    10     3    24 1   
    11     4     7 1   
    12     5    25 1   
    13     6    26 1   
    14     7     8 2   
    15     7     9 1   
    16     9    10 1   
    17     9    27 1   
    18     9    28 1   
    19    10    11 1   
    20    10    29 1   
    21    10    30 1   
    22    11    12 1   
    23    11    31 1   
    24    11    48 1   
    25    12    13 1   
    26    12    32 1   
    27    12    49 1   
    28    13    14 1   
    29    13    33 1   
    30    13    44 1   
    31    14    15 1   
    32    14    34 1   
    33    14    45 1   
    34    15    16 1   
    35    15    35 1   
    36    15    36 1   
    37    16    17 1   
    38    16    37 1   
    39    16    38 1   
    40    17    18 1   
    41    17    39 1   
    42    17    46 1   
    43    18    19 1   
    44    18    40 1   
    45    18    47 1   
    46    19    41 1   
    47    19    42 1   
    48    19    43 1   
@<TRIPOS>SUBSTRUCTURE
     1 1QW         1 TEMP              0 ****  ****    0 ROOT
