@<TRIPOS>MOLECULE
1QW
   49    48     1     0     0
SMALL
bcc


@<TRIPOS>ATOM
      1 CH1          5.5300     0.6100     0.0930 c3         1 1QW       0.105400
      2 CH2          6.6200    -0.3570    -0.3350 c3         1 1QW       0.141100
      3 CH3          7.9670     0.3450    -0.2600 c3         1 1QW       0.105400
      4 OH1          4.2740    -0.0480    -0.0720 os         1 1QW      -0.410900
      5 OH2          6.5890    -1.5530     0.4050 oh         1 1QW      -0.562800
      6 OH3          8.9580    -0.5250    -0.7470 oh         1 1QW      -0.579800
      7 C1           3.1740     0.6390     0.2180 c          1 1QW       0.641100
      8 O1           3.1910     1.7810     0.6040 o          1 1QW      -0.540000
      9 C2           1.9350    -0.1900     0.0130 c3         1 1QW      -0.137400
     10 C3           0.6440     0.5950     0.1840 c3         1 1QW      -0.068400
     11 C4          -0.5900    -0.2770    -0.0110 c3         1 1QW      -0.075400
     12 C5          -1.8890     0.5020     0.1490 c3         1 1QW      -0.074400
     13 C6          -3.1340    -0.3540    -0.0390 c3         1 1QW      -0.074400
     14 C7          -4.4290     0.4330     0.1160 c3         1 1QW      -0.074400
     15 C8          -5.6800    -0.4160    -0.0680 c3         1 1QW      -0.074400
     16 C9          -6.9720     0.3780     0.0820 c3         1 1QW      -0.074400
     17 C10         -8.2260    -0.4680    -0.1020 c3         1 1QW      -0.075400
     18 C11         -9.5170     0.3280     0.0410 c3         1 1QW      -0.075400
     19 C12        -10.7630    -0.5270    -0.1500 c3         1 1QW      -0.088100
     20 H1           5.6660     0.9070     1.1380 h1         1 1QW       0.050700
     21 H2           5.5660     1.5130    -0.5210 h1         1 1QW       0.050700
     22 H3           6.4390    -0.6450    -1.3760 h1         1 1QW       0.097700
     23 H4           7.9130     1.2700    -0.8480 h1         1 1QW       0.021700
     24 H5           8.1630     0.6410     0.7810 h1         1 1QW       0.021700
     25 H6           6.8130    -1.3550     1.3210 ho         1 1QW       0.397000
     26 H7           9.8050    -0.0750    -0.6820 ho         1 1QW       0.406000
     27 H8           1.9800    -0.6480    -0.9790 hc         1 1QW       0.073700
     28 H9           1.9710    -1.0250     0.7220 hc         1 1QW       0.073700
     29 H10          0.6150     1.0460     1.1800 hc         1 1QW       0.053700
     30 H11          0.6200     1.4230    -0.5300 hc         1 1QW       0.053700
     31 H12         -0.5620    -0.7370    -1.0040 hc         1 1QW       0.038200
     32 H13         -1.9130     0.9650     1.1420 hc         1 1QW       0.039700
     33 H14         -3.1100    -0.8200    -1.0310 hc         1 1QW       0.037700
     34 H15         -4.4510     0.9020     1.1070 hc         1 1QW       0.037700
     35 H16         -5.6570    -0.8870    -1.0570 hc         1 1QW       0.037200
     36 H17         -5.6720    -1.2370     0.6580 hc         1 1QW       0.037200
     37 H18         -6.9940     0.8500     1.0710 hc         1 1QW       0.036700
     38 H19         -6.9790     1.1980    -0.6450 hc         1 1QW       0.036700
     39 H20         -8.2020    -0.9430    -1.0900 hc         1 1QW       0.036700
     40 H21         -9.5430     0.8020     1.0270 hc         1 1QW       0.036700
     41 H22        -10.7720    -0.9930    -1.1370 hc         1 1QW       0.031367
     42 H23        -10.8100    -1.3270     0.5910 hc         1 1QW       0.031367
     43 H24        -11.6750     0.0640    -0.0570 hc         1 1QW       0.031367
     44 H25         -3.1220    -1.1780     0.6830 hc         1 1QW       0.037700
     45 H26         -4.4400     1.2570    -0.6070 hc         1 1QW       0.037700
     46 H27         -8.2230    -1.2860     0.6260 hc         1 1QW       0.036700
     47 H28         -9.5200     1.1450    -0.6870 hc         1 1QW       0.036700
     48 H29         -0.5710    -1.1040     0.7070 hc         1 1QW       0.038200
     49 H30         -1.9050     1.3290    -0.5700 hc         1 1QW       0.039700
@<TRIPOS>BOND
     1     1     2 1   
     2     1     4 1   
     3     1    20 1   
     4     1    21 1   
     5     2     3 1   
     6     2     5 1   
     7     2    22 1   
     8     3     6 1   
     9     3    23 1   
    10     3    24 1   
    11     4     7 1   
    12     5    25 1   
    13     6    26 1   
    14     7     8 2   
    15     7     9 1   
    16     9    10 1   
    17     9    27 1   
    18     9    28 1   
    19    10    11 1   
    20    10    29 1   
    21    10    30 1   
    22    11    12 1   
    23    11    31 1   
    24    11    48 1   
    25    12    13 1   
    26    12    32 1   
    27    12    49 1   
    28    13    14 1   
    29    13    33 1   
    30    13    44 1   
    31    14    15 1   
    32    14    34 1   
    33    14    45 1   
    34    15    16 1   
    35    15    35 1   
    36    15    36 1   
    37    16    17 1   
    38    16    37 1   
    39    16    38 1   
    40    17    18 1   
    41    17    39 1   
    42    17    46 1   
    43    18    19 1   
    44    18    40 1   
    45    18    47 1   
    46    19    41 1   
    47    19    42 1   
    48    19    43 1   
@<TRIPOS>SUBSTRUCTURE
     1 1QW         1 TEMP              0 ****  ****    0 ROOT
