@<TRIPOS>MOLECULE
1QY
   59    58     1     0     0
SMALL
abcg2


@<TRIPOS>ATOM
      1 C14        -14.0030     0.6180     0.0560 c3         1 1QY      -0.088100
      2 C13        -12.7270    -0.0160    -0.4790 c3         1 1QY      -0.075400
      3 C12        -11.4660     0.5550     0.1560 c3         1 1QY      -0.075400
      4 C11        -10.1860    -0.0800    -0.3730 c3         1 1QY      -0.074400
      5 C10         -8.9210     0.4840     0.2620 c3         1 1QY      -0.074400
      6 C9          -7.6470    -0.1590    -0.2710 c3         1 1QY      -0.074400
      7 C8          -6.3750     0.3970     0.3550 c3         1 1QY      -0.073400
      8 C7          -5.1100    -0.2550    -0.1900 c3         1 1QY      -0.075400
      9 C6          -3.8260     0.2950     0.4170 c3         1 1QY      -0.073400
     10 C5          -2.5740    -0.3640    -0.1470 c3         1 1QY      -0.075400
     11 C4          -1.2780     0.1830     0.4350 c3         1 1QY      -0.073400
     12 C3          -0.0400    -0.4810    -0.1540 c3         1 1QY      -0.076400
     13 C2           1.2670     0.0740     0.3960 c3         1 1QY      -0.087400
     14 C1           2.4700    -0.6120    -0.2210 c3         1 1QY       0.231600
     15 O1           3.6610    -0.0190     0.2670 os         1 1QY      -0.611400
     16 P1           5.0750    -0.8660     0.1040 p5         1 1QY       1.404400
     17 O2           5.1910    -1.3570    -1.3170 o          1 1QY      -0.828000
     18 C1H          6.2290     0.5210     0.3920 c3         1 1QY      -0.426400
     19 C2H          7.6800     0.0540     0.3290 c3         1 1QY      -0.064400
     20 C3H          8.6430     1.2160     0.5330 c3         1 1QY       0.158800
     21 N1          10.0510     0.7940     0.5440 n2         1 1QY      -0.447200
     22 N2          10.5340     0.4860    -0.5290 n1         1 1QY       0.238000
     23 N3          11.0720     0.1860    -1.4700 n1         1 1QY      -0.125000
     24 H1         -14.8910     0.1900    -0.4110 hc         1 1QY       0.029700
     25 H2         -14.0940     0.4720     1.1340 hc         1 1QY       0.029700
     26 H3         -14.0180     1.6940    -0.1300 hc         1 1QY       0.029700
     27 H4         -12.7580    -1.0970    -0.3120 hc         1 1QY       0.035700
     28 H5         -12.6780     0.1190    -1.5640 hc         1 1QY       0.035700
     29 H6         -11.4320     1.6370    -0.0120 hc         1 1QY       0.036700
     30 H7         -11.5160     0.4210     1.2430 hc         1 1QY       0.036700
     31 H8         -10.2230    -1.1620    -0.2060 hc         1 1QY       0.036700
     32 H9         -10.1370     0.0560    -1.4590 hc         1 1QY       0.036700
     33 H10         -8.8800     1.5660     0.0940 hc         1 1QY       0.036700
     34 H11         -8.9690     0.3500     1.3490 hc         1 1QY       0.036700
     35 H12         -7.6910    -1.2410    -0.1030 hc         1 1QY       0.036700
     36 H13         -7.6030    -0.0270    -1.3580 hc         1 1QY       0.036700
     37 H14         -6.3280     1.4780     0.1850 hc         1 1QY       0.036200
     38 H15         -6.4150     0.2630     1.4410 hc         1 1QY       0.036200
     39 H16         -5.1580    -1.3360    -0.0190 hc         1 1QY       0.036200
     40 H17         -5.0780    -0.1260    -1.2780 hc         1 1QY       0.036200
     41 H18         -3.7760     1.3760     0.2470 hc         1 1QY       0.035200
     42 H19         -3.8510     0.1620     1.5050 hc         1 1QY       0.035200
     43 H20         -2.6230    -1.4440     0.0290 hc         1 1QY       0.035200
     44 H21         -2.5610    -0.2380    -1.2350 hc         1 1QY       0.035200
     45 H22         -1.2270     1.2640     0.2610 hc         1 1QY       0.034200
     46 H23         -1.2800     0.0520     1.5230 hc         1 1QY       0.034200
     47 H24         -0.0880    -1.5600     0.0310 hc         1 1QY       0.034200
     48 H25         -0.0540    -0.3630    -1.2430 hc         1 1QY       0.034200
     49 H26          1.3200     1.1500     0.1990 hc         1 1QY       0.041200
     50 H27          1.2940    -0.0490     1.4840 hc         1 1QY       0.041200
     51 H28          2.4310    -1.6840     0.0140 h1         1 1QY       0.017700
     52 H29          2.4220    -0.5280    -1.3130 h1         1 1QY       0.017700
     53 H31          6.0560     1.2980    -0.3580 hc         1 1QY       0.046700
     54 H32          6.0260     0.9690     1.3680 hc         1 1QY       0.046700
     55 H33          7.8630    -0.7050     1.0920 hc         1 1QY       0.054200
     56 H34          7.8720    -0.4140    -0.6410 hc         1 1QY       0.054200
     57 H35          8.4810     1.9830    -0.2300 h1         1 1QY       0.050200
     58 H36          8.4730     1.6790     1.5030 h1         1 1QY       0.050200
     59 O3           5.1850    -1.8650     1.2270 o          1 1QY      -0.828000
@<TRIPOS>BOND
     1     1     2 1   
     2     1    24 1   
     3     1    25 1   
     4     1    26 1   
     5     2     3 1   
     6     2    27 1   
     7     2    28 1   
     8     3     4 1   
     9     3    29 1   
    10     3    30 1   
    11     4     5 1   
    12     4    31 1   
    13     4    32 1   
    14     5     6 1   
    15     5    33 1   
    16     5    34 1   
    17     6     7 1   
    18     6    35 1   
    19     6    36 1   
    20     7     8 1   
    21     7    37 1   
    22     7    38 1   
    23     8     9 1   
    24     8    39 1   
    25     8    40 1   
    26     9    10 1   
    27     9    41 1   
    28     9    42 1   
    29    10    11 1   
    30    10    43 1   
    31    10    44 1   
    32    11    12 1   
    33    11    45 1   
    34    11    46 1   
    35    12    13 1   
    36    12    47 1   
    37    12    48 1   
    38    13    14 1   
    39    13    49 1   
    40    13    50 1   
    41    14    15 1   
    42    14    51 1   
    43    14    52 1   
    44    15    16 1   
    45    16    17 1   
    46    16    18 1   
    47    16    59 1   
    48    18    19 1   
    49    18    53 1   
    50    18    54 1   
    51    19    20 1   
    52    19    55 1   
    53    19    56 1   
    54    20    21 1   
    55    20    57 1   
    56    20    58 1   
    57    21    22 1   
    58    22    23 3   
@<TRIPOS>SUBSTRUCTURE
     1 1QY         1 TEMP              0 ****  ****    0 ROOT
