@<TRIPOS>MOLECULE
1QY
   59    58     1     0     0
SMALL
No Charge or Current Charge


@<TRIPOS>ATOM
      1 C14        -14.0790     0.9460     0.2570 c3         1 1QY      -0.088100
      2 C13        -12.8540     0.1090    -0.1600 c3         1 1QY      -0.075400
      3 C12        -11.5120     0.7670     0.2290 c3         1 1QY      -0.075400
      4 C11        -10.2840    -0.0710    -0.1890 c3         1 1QY      -0.074400
      5 C10         -8.9420     0.5870     0.2000 c3         1 1QY      -0.074400
      6 C9          -7.7140    -0.2520    -0.2180 c3         1 1QY      -0.074400
      7 C8          -6.3720     0.4070     0.1710 c3         1 1QY      -0.073400
      8 C7          -5.1440    -0.4320    -0.2470 c3         1 1QY      -0.075400
      9 C6          -3.8020     0.2260     0.1430 c3         1 1QY      -0.073400
     10 C5          -2.5750    -0.6120    -0.2750 c3         1 1QY      -0.075400
     11 C4          -1.2330     0.0460     0.1140 c3         1 1QY      -0.073400
     12 C3          -0.0050    -0.7930    -0.3040 c3         1 1QY      -0.076400
     13 C2           1.3380    -0.1350     0.0850 c3         1 1QY      -0.087400
     14 C1           2.5620    -0.9730    -0.3330 c3         1 1QY       0.231600
     15 O1           3.7310    -0.2650     0.0790 os         1 1QY      -0.611400
     16 P1           5.1680    -0.9220    -0.2360 p5         1 1QY       1.404400
     17 O2           5.4250    -1.0260    -1.7040 o          1 1QY      -0.828000
     18 C1H          6.2240     0.3910     0.4960 c3         1 1QY      -0.426400
     19 C2H          7.7490     0.1330     0.3950 c3         1 1QY      -0.064400
     20 C3H          8.6010     1.2590     1.0230 c3         1 1QY       0.158800
     21 N1          10.0320     0.9480     0.9060 n2         1 1QY      -0.447200
     22 N2          10.6270     1.4390    -0.0670 n1         1 1QY       0.238000
     23 N3          11.2140     1.7560    -0.9880 n1         1 1QY      -0.125000
     24 H1         -15.0060     0.4400    -0.0390 hc         1 1QY       0.029700
     25 H2         -14.0990     1.0890     1.3440 hc         1 1QY       0.029700
     26 H3         -14.0580     1.9310    -0.2230 hc         1 1QY       0.029700
     27 H4         -12.9230    -0.8810     0.3070 hc         1 1QY       0.035700
     28 H5         -12.8820    -0.0460    -1.2460 hc         1 1QY       0.035700
     29 H6         -11.4480     1.7580    -0.2390 hc         1 1QY       0.036700
     30 H7         -11.4890     0.9230     1.3150 hc         1 1QY       0.036700
     31 H8         -10.3480    -1.0620     0.2780 hc         1 1QY       0.036700
     32 H9         -10.3070    -0.2270    -1.2750 hc         1 1QY       0.036700
     33 H10         -8.8780     1.5770    -0.2680 hc         1 1QY       0.036700
     34 H11         -8.9190     0.7430     1.2860 hc         1 1QY       0.036700
     35 H12         -7.7780    -1.2420     0.2500 hc         1 1QY       0.036700
     36 H13         -7.7370    -0.4070    -1.3040 hc         1 1QY       0.036700
     37 H14         -6.3080     1.3970    -0.2960 hc         1 1QY       0.036200
     38 H15         -6.3490     0.5620     1.2570 hc         1 1QY       0.036200
     39 H16         -5.2090    -1.4220     0.2210 hc         1 1QY       0.036200
     40 H17         -5.1670    -0.5880    -1.3330 hc         1 1QY       0.036200
     41 H18         -3.7380     1.2170    -0.3250 hc         1 1QY       0.035200
     42 H19         -3.7790     0.3820     1.2280 hc         1 1QY       0.035200
     43 H20         -2.6390    -1.6030     0.1920 hc         1 1QY       0.035200
     44 H21         -2.5980    -0.7680    -1.3610 hc         1 1QY       0.035200
     45 H22         -1.1680     1.0360    -0.3540 hc         1 1QY       0.034200
     46 H23         -1.2100     0.2020     1.2000 hc         1 1QY       0.034200
     47 H24         -0.0690    -1.7830     0.1640 hc         1 1QY       0.034200
     48 H25         -0.0280    -0.9490    -1.3900 hc         1 1QY       0.034200
     49 H26          1.4050     0.8540    -0.3840 hc         1 1QY       0.041200
     50 H27          1.3630     0.0190     1.1710 hc         1 1QY       0.041200
     51 H28          2.5120    -1.9590     0.1490 h1         1 1QY       0.017700
     52 H29          2.5530    -1.1150    -1.4220 h1         1 1QY       0.017700
     53 H31          5.9650     1.3260    -0.0120 hc         1 1QY       0.046700
     54 H32          5.9270     0.4870     1.5460 hc         1 1QY       0.046700
     55 H33          7.9900    -0.8160     0.8910 hc         1 1QY       0.054200
     56 H34          8.0270     0.0200    -0.6610 hc         1 1QY       0.054200
     57 H35          8.3580     2.2110     0.5300 h1         1 1QY       0.050200
     58 H36          8.3260     1.3620     2.0810 h1         1 1QY       0.050200
     59 O3           5.3670    -2.2080     0.4970 o          1 1QY      -0.828000
@<TRIPOS>BOND
     1     1     2 1   
     2     1    24 1   
     3     1    25 1   
     4     1    26 1   
     5     2     3 1   
     6     2    27 1   
     7     2    28 1   
     8     3     4 1   
     9     3    29 1   
    10     3    30 1   
    11     4     5 1   
    12     4    31 1   
    13     4    32 1   
    14     5     6 1   
    15     5    33 1   
    16     5    34 1   
    17     6     7 1   
    18     6    35 1   
    19     6    36 1   
    20     7     8 1   
    21     7    37 1   
    22     7    38 1   
    23     8     9 1   
    24     8    39 1   
    25     8    40 1   
    26     9    10 1   
    27     9    41 1   
    28     9    42 1   
    29    10    11 1   
    30    10    43 1   
    31    10    44 1   
    32    11    12 1   
    33    11    45 1   
    34    11    46 1   
    35    12    13 1   
    36    12    47 1   
    37    12    48 1   
    38    13    14 1   
    39    13    49 1   
    40    13    50 1   
    41    14    15 1   
    42    14    51 1   
    43    14    52 1   
    44    15    16 1   
    45    16    17 1   
    46    16    18 1   
    47    16    59 1   
    48    18    19 1   
    49    18    53 1   
    50    18    54 1   
    51    19    20 1   
    52    19    55 1   
    53    19    56 1   
    54    20    21 1   
    55    20    57 1   
    56    20    58 1   
    57    21    22 1   
    58    22    23 3   
@<TRIPOS>SUBSTRUCTURE
     1 1QY         1 TEMP              0 ****  ****    0 ROOT
