@<TRIPOS>MOLECULE
1QZ
   57    60     1     0     0
SMALL
bcc


@<TRIPOS>ATOM
      1 CAA          4.8560     3.2070    -0.4350 c3         1 1QZ      -0.084100
      2 CAQ          5.4990     2.0470    -1.1950 c3         1 1QZ      -0.135700
      3 C4           5.5540     0.8040    -0.3590 ca         1 1QZ       0.550600
      4 N3           6.6980     0.5400     0.2580 nb         1 1QZ      -0.820000
      5 C2           6.7280    -0.5540     1.0290 ca         1 1QZ       0.955900
      6 NAD          7.8800    -0.8040     1.6780 nv         1 1QZ      -0.954500
      7 N1           5.7240    -1.4040     1.2330 nb         1 1QZ      -0.870000
      8 C6           4.5750    -1.1430     0.6200 ca         1 1QZ       0.778200
      9 NAE          3.5560    -1.9850     0.8190 nv         1 1QZ      -0.967500
     10 C5           4.4290    -0.0070    -0.2220 ca         1 1QZ      -0.355600
     11 CAF          3.1930     0.2610    -0.8590 cg         1 1QZ      -0.075000
     12 CAG          2.1150     0.4490    -1.3690 c1         1 1QZ      -0.167100
     13 CBF          0.8090     0.6810    -1.9820 c3         1 1QZ       0.079700
     14 CAC          0.7850     0.2400    -3.4510 c3         1 1QZ      -0.082100
     15 CAZ         -0.2800    -0.0010    -1.1770 ca         1 1QZ      -0.038300
     16 CAP         -1.3570     0.7380    -0.6990 ca         1 1QZ      -0.148000
     17 CAO         -0.2230    -1.3650    -0.9380 ca         1 1QZ      -0.157000
     18 CAX         -1.2360    -1.9980    -0.2180 ca         1 1QZ       0.138100
     19 OAU         -1.0900    -3.3220    -0.0290 os         1 1QZ      -0.321900
     20 CAN         -2.3110    -1.2560     0.2640 ca         1 1QZ      -0.205000
     21 CAY         -2.3710     0.1150     0.0210 cp         1 1QZ       0.000000
     22 CBC         -3.4900     0.9190     0.5610 cp         1 1QZ      -0.035000
     23 CBE         -4.8440     0.6400     0.2200 ca         1 1QZ       0.004000
     24 CAL         -5.2470    -0.3650    -0.6890 ca         1 1QZ      -0.230300
     25 CAI         -6.5750    -0.5440    -0.9530 ca         1 1QZ       0.386200
     26 NAR         -7.5610     0.1920    -0.3920 nb         1 1QZ      -0.663000
     27 CAM         -7.2120     1.1370     0.4360 ca         1 1QZ       0.426200
     28 CBD         -5.8730     1.4300     0.7900 ca         1 1QZ      -0.167300
     29 CAK         -5.5590     2.4850     1.6720 ca         1 1QZ      -0.097000
     30 CAH         -4.2520     2.7520     1.9690 ca         1 1QZ      -0.130000
     31 CAJ         -3.2250     1.9670     1.4110 ca         1 1QZ      -0.098000
     32 CAB         -2.1000    -4.0240     0.6680 c3         1 1QZ       0.124700
     33 H1           4.8290     4.1020    -1.0580 hc         1 1QZ       0.038033
     34 H2           3.8320     2.9720    -0.1460 hc         1 1QZ       0.038033
     35 H3           5.4170     3.4450     0.4690 hc         1 1QZ       0.038033
     36 H4           4.9320     1.8520    -2.1080 hc         1 1QZ       0.059700
     37 H5           6.5140     2.3160    -1.4890 hc         1 1QZ       0.059700
     38 H6           8.7030    -0.2850     1.4290 hn         1 1QZ       0.441300
     39 H7           8.0080    -1.6920     2.1300 hn         1 1QZ       0.441300
     40 H8           3.6740    -2.7880     1.4110 hn         1 1QZ       0.448800
     41 H9           2.6630    -1.8390     0.3820 hn         1 1QZ       0.448800
     42 H10          0.6190     1.7580    -1.9550 hc         1 1QZ       0.066700
     43 H11         -0.1900     0.4540    -3.8890 hc         1 1QZ       0.042367
     44 H12          1.5420     0.7750    -4.0240 hc         1 1QZ       0.042367
     45 H13          0.9780    -0.8280    -3.5450 hc         1 1QZ       0.042367
     46 H14         -1.4110     1.8020    -0.8940 ha         1 1QZ       0.138000
     47 H15          0.6080    -1.9550    -1.3100 ha         1 1QZ       0.146000
     48 H16         -3.0960    -1.7230     0.8440 ha         1 1QZ       0.142000
     49 H17         -4.5180    -0.9900    -1.1870 ha         1 1QZ       0.148000
     50 H18         -6.8940    -1.3110    -1.6500 h4         1 1QZ       0.019100
     51 H19         -8.0070     1.7340     0.8740 h4         1 1QZ       0.018100
     52 H20         -6.3590     3.0780     2.0970 ha         1 1QZ       0.136000
     53 H21         -3.9970     3.5630     2.6390 ha         1 1QZ       0.137000
     54 H22         -2.1980     2.1850     1.6760 ha         1 1QZ       0.139000
     55 H23         -3.0690    -3.9510     0.1660 h1         1 1QZ       0.042367
     56 H24         -1.7940    -5.0670     0.6870 h1         1 1QZ       0.042367
     57 H25         -2.2070    -3.6710     1.6970 h1         1 1QZ       0.042367
@<TRIPOS>BOND
     1     1     2 1   
     2     1    33 1   
     3     1    34 1   
     4     1    35 1   
     5     2     3 1   
     6     2    36 1   
     7     2    37 1   
     8     3     4 ar  
     9     3    10 ar  
    10     4     5 ar  
    11     5     6 1   
    12     5     7 ar  
    13     6    38 1   
    14     6    39 1   
    15     7     8 ar  
    16     8     9 1   
    17     8    10 ar  
    18     9    40 1   
    19     9    41 1   
    20    10    11 1   
    21    11    12 3   
    22    12    13 1   
    23    13    14 1   
    24    13    15 1   
    25    13    42 1   
    26    14    43 1   
    27    14    44 1   
    28    14    45 1   
    29    15    16 ar  
    30    15    17 ar  
    31    16    21 ar  
    32    16    46 1   
    33    17    18 ar  
    34    17    47 1   
    35    18    19 1   
    36    18    20 ar  
    37    19    32 1   
    38    20    21 ar  
    39    20    48 1   
    40    21    22 1   
    41    22    23 ar  
    42    22    31 ar  
    43    23    24 ar  
    44    23    28 ar  
    45    24    25 ar  
    46    24    49 1   
    47    25    26 ar  
    48    25    50 1   
    49    26    27 ar  
    50    27    28 ar  
    51    27    51 1   
    52    28    29 ar  
    53    29    30 ar  
    54    29    52 1   
    55    30    31 ar  
    56    30    53 1   
    57    31    54 1   
    58    32    55 1   
    59    32    56 1   
    60    32    57 1   
@<TRIPOS>SUBSTRUCTURE
     1 1QZ         1 TEMP              0 ****  ****    0 ROOT
