@<TRIPOS>MOLECULE
1QZ
   57    60     1     0     0
SMALL
No Charge or Current Charge


@<TRIPOS>ATOM
      1 CAA          5.1880     0.2090    -2.7390 c3         1 1QZ      -0.084100
      2 CAQ          4.8930    -0.7880    -1.5980 c3         1 1QZ      -0.135700
      3 C4           5.2330    -0.2270    -0.2150 ca         1 1QZ       0.222300
      4 N3           6.4230    -0.6080     0.2950 nb         1 1QZ      -0.294000
      5 C2           6.7360    -0.1240     1.5010 ca         1 1QZ       0.429900
      6 NAD          7.9260    -0.5110     2.0070 nv         1 1QZ      -1.064900
      7 N1           6.0150     0.6910     2.2730 nb         1 1QZ      -0.344000
      8 C6           4.8380     1.0670     1.7690 ca         1 1QZ       0.449900
      9 NAE          4.1270     1.8970     2.5770 nv         1 1QZ      -1.077900
     10 C5           4.3770     0.6410     0.5070 ca         1 1QZ      -0.225000
     11 CAF          3.1060     1.0650    -0.0240 cg         1 1QZ      -0.075000
     12 CAG          2.0420     1.4120    -0.4940 c1         1 1QZ      -0.167100
     13 CBF          0.7670     1.7970    -1.1170 c3         1 1QZ       0.079700
     14 CAC          0.9500     2.0860    -2.6230 c3         1 1QZ      -0.082100
     15 CAZ         -0.2920     0.7210    -0.8630 ca         1 1QZ      -0.038300
     16 CAP         -1.4540     1.0290    -0.1290 ca         1 1QZ      -0.130000
     17 CAO         -0.1280    -0.5890    -1.3600 ca         1 1QZ      -0.139000
     18 CAX         -1.0980    -1.5750    -1.1230 ca         1 1QZ       0.138100
     19 OAU         -0.8670    -2.8390    -1.6270 os         1 1QZ      -0.345100
     20 CAN         -2.2560    -1.2500    -0.3880 ca         1 1QZ      -0.187000
     21 CAY         -2.4550     0.0590     0.1080 cp         1 1QZ       0.000000
     22 CBC         -3.6760     0.4070     0.8950 cp         1 1QZ      -0.035000
     23 CBE         -4.9940     0.2770     0.3690 ca         1 1QZ       0.004000
     24 CAL         -5.2460    -0.1450    -0.9530 ca         1 1QZ      -0.147000
     25 CAI         -6.5700    -0.2490    -1.4090 ca         1 1QZ       0.320900
     26 NAR         -7.6420     0.0420    -0.6400 nb         1 1QZ      -0.663000
     27 CAM         -7.4090     0.4590     0.6260 ca         1 1QZ       0.360900
     28 CBD         -6.1140     0.5960     1.1680 ca         1 1QZ      -0.102000
     29 CAK         -5.9390     1.0530     2.4870 ca         1 1QZ      -0.079000
     30 CAH         -4.6450     1.2010     3.0090 ca         1 1QZ      -0.112000
     31 CAJ         -3.5280     0.8830     2.2200 ca         1 1QZ      -0.080000
     32 CAB         -1.7930    -3.9240    -1.4340 c3         1 1QZ       0.147900
     33 H1           4.9490    -0.2420    -3.7100 hc         1 1QZ       0.038033
     34 H2           4.5880     1.1200    -2.6280 hc         1 1QZ       0.038033
     35 H3           6.2480     0.4910    -2.7430 hc         1 1QZ       0.038033
     36 H4           3.8380    -1.0840    -1.6410 hc         1 1QZ       0.059700
     37 H5           5.4640    -1.7060    -1.7830 hc         1 1QZ       0.059700
     38 H6           8.3940    -1.3040     1.5750 hn         1 1QZ       0.496500
     39 H7           8.0960    -0.3660     3.0000 hn         1 1QZ       0.496500
     40 H8           4.6180     2.3550     3.3400 hn         1 1QZ       0.504000
     41 H9           3.3400     2.3980     2.1710 hn         1 1QZ       0.504000
     42 H10          0.4520     2.7360    -0.6440 hc         1 1QZ       0.066700
     43 H11         -0.0060     2.3780    -3.0740 hc         1 1QZ       0.042367
     44 H12          1.6620     2.9070    -2.7770 hc         1 1QZ       0.042367
     45 H13          1.3260     1.2050    -3.1560 hc         1 1QZ       0.042367
     46 H14         -1.5960     2.0360     0.2590 ha         1 1QZ       0.120000
     47 H15          0.7630    -0.8500    -1.9250 ha         1 1QZ       0.128000
     48 H16         -3.0160    -1.9980    -0.1850 ha         1 1QZ       0.124000
     49 H17         -4.4390    -0.3830    -1.6390 ha         1 1QZ       0.130000
     50 H18         -6.7790    -0.5740    -2.4280 h4         1 1QZ       0.019100
     51 H19         -8.2890     0.6950     1.2220 h4         1 1QZ       0.018100
     52 H20         -6.8010     1.3000     3.1040 ha         1 1QZ       0.118000
     53 H21         -4.5080     1.5580     4.0280 ha         1 1QZ       0.119000
     54 H22         -2.5320     0.9930     2.6420 ha         1 1QZ       0.121000
     55 H23         -2.7690    -3.6880    -1.8770 h1         1 1QZ       0.042367
     56 H24         -1.4150    -4.8360    -1.9120 h1         1 1QZ       0.042367
     57 H25         -1.9310    -4.1330    -0.3660 h1         1 1QZ       0.042367
@<TRIPOS>BOND
     1     1     2 1   
     2     1    33 1   
     3     1    34 1   
     4     1    35 1   
     5     2     3 1   
     6     2    36 1   
     7     2    37 1   
     8     3     4 ar  
     9     3    10 ar  
    10     4     5 ar  
    11     5     6 1   
    12     5     7 ar  
    13     6    38 1   
    14     6    39 1   
    15     7     8 ar  
    16     8     9 1   
    17     8    10 ar  
    18     9    40 1   
    19     9    41 1   
    20    10    11 1   
    21    11    12 3   
    22    12    13 1   
    23    13    14 1   
    24    13    15 1   
    25    13    42 1   
    26    14    43 1   
    27    14    44 1   
    28    14    45 1   
    29    15    16 ar  
    30    15    17 ar  
    31    16    21 ar  
    32    16    46 1   
    33    17    18 ar  
    34    17    47 1   
    35    18    19 1   
    36    18    20 ar  
    37    19    32 1   
    38    20    21 ar  
    39    20    48 1   
    40    21    22 1   
    41    22    23 ar  
    42    22    31 ar  
    43    23    24 ar  
    44    23    28 ar  
    45    24    25 ar  
    46    24    49 1   
    47    25    26 ar  
    48    25    50 1   
    49    26    27 ar  
    50    27    28 ar  
    51    27    51 1   
    52    28    29 ar  
    53    29    30 ar  
    54    29    52 1   
    55    30    31 ar  
    56    30    53 1   
    57    31    54 1   
    58    32    55 1   
    59    32    56 1   
    60    32    57 1   
@<TRIPOS>SUBSTRUCTURE
     1 1QZ         1 TEMP              0 ****  ****    0 ROOT
