@<TRIPOS>MOLECULE
1R0
   54    57     1     0     0
SMALL
bcc


@<TRIPOS>ATOM
      1 CAA         -5.9600     0.9220     0.0270 c3         1 1R0      -0.084100
      2 CAP         -5.3070     0.3060     1.2640 c3         1 1R0      -0.136700
      3 C4          -4.4890    -0.8990     0.9100 ca         1 1R0       0.550600
      4 N3          -5.0630    -2.0840     1.0680 nb         1 1R0      -0.818000
      5 C2          -4.3410    -3.1560     0.7190 ca         1 1R0       0.956900
      6 NAC         -4.9340    -4.3550     0.8560 nv         1 1R0      -0.955500
      7 N1          -3.1020    -3.1470     0.2300 nb         1 1R0      -0.863000
      8 C6          -2.5260    -1.9630     0.0680 ca         1 1R0       0.768200
      9 NAD         -1.2660    -1.9440    -0.3970 nv         1 1R0      -0.955500
     10 C5          -3.1970    -0.7590     0.4040 ca         1 1R0      -0.353600
     11 CAF         -2.5580     0.4940     0.2390 cg         1 1R0      -0.072000
     12 CAE         -1.9760     1.5400     0.0800 c1         1 1R0      -0.171100
     13 CAQ         -1.2750     2.8030    -0.0920 c3         1 1R0       0.063000
     14 CAW          0.2360     2.6970    -0.0870 ca         1 1R0      -0.037300
     15 CAN          0.8960     1.5200     0.2100 ca         1 1R0      -0.149000
     16 CAM          0.9690     3.8460    -0.3900 ca         1 1R0      -0.219000
     17 CAY          2.3570     3.8070    -0.3860 ca         1 1R0       0.145100
     18 OAU          3.1440     4.8620    -0.6620 os         1 1R0      -0.317900
     19 CAB          2.5350     6.0960    -0.9880 c3         1 1R0       0.125700
     20 CAO          3.0200     2.6110    -0.0930 ca         1 1R0      -0.152000
     21 CAZ          2.2940     1.4700     0.2000 cp         1 1R0      -0.006000
     22 CBC          2.9870     0.2030     0.5230 cp         1 1R0      -0.031000
     23 CBE          2.7560    -0.9760    -0.2410 ca         1 1R0       0.005000
     24 CAK          1.9450    -1.0280    -1.3980 ca         1 1R0      -0.234300
     25 CAH          1.7900    -2.2120    -2.0630 ca         1 1R0       0.374200
     26 NAR          2.3710    -3.3710    -1.6800 nb         1 1R0      -0.665000
     27 CAL          3.1410    -3.3420    -0.6280 ca         1 1R0       0.429200
     28 CBD          3.3960    -2.1800     0.1400 ca         1 1R0      -0.164300
     29 CAJ          4.2700    -2.2040     1.2480 ca         1 1R0      -0.097000
     30 CAG          4.5060    -1.0540     1.9480 ca         1 1R0      -0.128000
     31 CAI          3.8610     0.1440     1.5820 ca         1 1R0      -0.096000
     32 H1          -6.5870     0.1960    -0.4910 hc         1 1R0       0.038033
     33 H2          -6.5870     1.7670     0.3100 hc         1 1R0       0.038033
     34 H3          -5.2110     1.2860    -0.6770 hc         1 1R0       0.038033
     35 H4          -4.6780     1.0520     1.7540 hc         1 1R0       0.060700
     36 H5          -6.0780     0.0060     1.9760 hc         1 1R0       0.060700
     37 H6          -5.8010    -4.4200     1.3580 hn         1 1R0       0.443300
     38 H7          -4.3900    -5.1930     0.7490 hn         1 1R0       0.443300
     39 H8          -0.8620    -2.8010    -0.7350 hn         1 1R0       0.441300
     40 H9          -0.8600    -1.0850    -0.7250 hn         1 1R0       0.441300
     41 H10         -1.5920     3.2730    -1.0280 hc         1 1R0       0.064200
     42 H11         -1.5850     3.4920     0.7010 hc         1 1R0       0.064200
     43 H12          0.3350     0.6330     0.4750 ha         1 1R0       0.146000
     44 H13          0.4360     4.7580    -0.6270 ha         1 1R0       0.135000
     45 H14          1.9170     6.0210    -1.8870 h1         1 1R0       0.041367
     46 H15          1.9200     6.4770    -0.1680 h1         1 1R0       0.041367
     47 H16          3.3420     6.7980    -1.1770 h1         1 1R0       0.041367
     48 H17          4.1030     2.5840    -0.1140 ha         1 1R0       0.150000
     49 H18          1.4560    -0.1400    -1.7750 ha         1 1R0       0.148000
     50 H19          1.1750    -2.2600    -2.9540 h4         1 1R0       0.018100
     51 H20          3.6150    -4.2740    -0.3340 h4         1 1R0       0.019100
     52 H21          4.7500    -3.1340     1.5270 ha         1 1R0       0.137000
     53 H22          5.1790    -1.0560     2.7940 ha         1 1R0       0.137000
     54 H23          4.0440     1.0360     2.1670 ha         1 1R0       0.139000
@<TRIPOS>BOND
     1     1     2 1   
     2     1    32 1   
     3     1    33 1   
     4     1    34 1   
     5     2     3 1   
     6     2    35 1   
     7     2    36 1   
     8     3     4 ar  
     9     3    10 ar  
    10     4     5 ar  
    11     5     6 1   
    12     5     7 ar  
    13     6    37 1   
    14     6    38 1   
    15     7     8 ar  
    16     8     9 1   
    17     8    10 ar  
    18     9    39 1   
    19     9    40 1   
    20    10    11 1   
    21    11    12 3   
    22    12    13 1   
    23    13    14 1   
    24    13    41 1   
    25    13    42 1   
    26    14    15 ar  
    27    14    16 ar  
    28    15    21 ar  
    29    15    43 1   
    30    16    17 ar  
    31    16    44 1   
    32    17    18 1   
    33    17    20 ar  
    34    18    19 1   
    35    19    45 1   
    36    19    46 1   
    37    19    47 1   
    38    20    21 ar  
    39    20    48 1   
    40    21    22 1   
    41    22    23 ar  
    42    22    31 ar  
    43    23    24 ar  
    44    23    28 ar  
    45    24    25 ar  
    46    24    49 1   
    47    25    26 ar  
    48    25    50 1   
    49    26    27 ar  
    50    27    28 ar  
    51    27    51 1   
    52    28    29 ar  
    53    29    30 ar  
    54    29    52 1   
    55    30    31 ar  
    56    30    53 1   
    57    31    54 1   
@<TRIPOS>SUBSTRUCTURE
     1 1R0         1 TEMP              0 ****  ****    0 ROOT
