@<TRIPOS>MOLECULE
1R0
   54    57     1     0     0
SMALL
No Charge or Current Charge


@<TRIPOS>ATOM
      1 CAA         -5.7950     0.8150     1.6320 c3         1 1R0      -0.084100
      2 CAP         -4.8410    -0.3540     1.9550 c3         1 1R0      -0.136700
      3 C4          -4.3090    -1.0460     0.7000 ca         1 1R0       0.222300
      4 N3          -4.9530    -2.1750     0.3370 nb         1 1R0      -0.292000
      5 C2          -4.5030    -2.7910    -0.7610 ca         1 1R0       0.430900
      6 NAC         -5.1510    -3.9210    -1.1180 nv         1 1R0      -1.065900
      7 N1          -3.4900    -2.4290    -1.5490 nb         1 1R0      -0.337000
      8 C6          -2.8530    -1.3120    -1.1900 ca         1 1R0       0.439900
      9 NAD         -1.8290    -0.9630    -2.0120 nv         1 1R0      -1.065900
     10 C5          -3.2190    -0.5550    -0.0580 ca         1 1R0      -0.223000
     11 CAF         -2.5150     0.6470     0.3090 cg         1 1R0      -0.072000
     12 CAE         -1.9010     1.6480     0.6180 c1         1 1R0      -0.171100
     13 CAQ         -1.0870     2.8150     0.9870 c3         1 1R0       0.063000
     14 CAW          0.3160     2.6920     0.3990 ca         1 1R0      -0.037300
     15 CAN          1.1480     1.6250     0.7860 ca         1 1R0      -0.131000
     16 CAM          0.7850     3.6240    -0.5470 ca         1 1R0      -0.201000
     17 CAY          2.0760     3.4850    -1.1020 ca         1 1R0       0.145100
     18 OAU          2.5870     4.3710    -2.0280 os         1 1R0      -0.341100
     19 CAB          1.8410     5.5110    -2.4930 c3         1 1R0       0.148900
     20 CAO          2.8840     2.4030    -0.7170 ca         1 1R0      -0.134000
     21 CAZ          2.4300     1.4460     0.2190 cp         1 1R0      -0.006000
     22 CBC          3.2900     0.2900     0.6120 cp         1 1R0      -0.031000
     23 CBE          2.8570    -1.0650     0.5060 ca         1 1R0       0.005000
     24 CAK          1.6020    -1.4260    -0.0310 ca         1 1R0      -0.151000
     25 CAH          1.2370    -2.7800    -0.1010 ca         1 1R0       0.308900
     26 NAR          2.0390    -3.7840     0.3170 nb         1 1R0      -0.665000
     27 CAL          3.2500    -3.4480     0.8200 ca         1 1R0       0.363900
     28 CBD          3.7010    -2.1170     0.9280 ca         1 1R0      -0.099000
     29 CAJ          4.9800    -1.8380     1.4430 ca         1 1R0      -0.079000
     30 CAG          5.4240    -0.5100     1.5330 ca         1 1R0      -0.110000
     31 CAI          4.5880     0.5400     1.1210 ca         1 1R0      -0.078000
     32 H1          -6.6600     0.4600     1.0580 hc         1 1R0       0.038033
     33 H2          -6.1620     1.2770     2.5560 hc         1 1R0       0.038033
     34 H3          -5.2830     1.5860     1.0430 hc         1 1R0       0.038033
     35 H4          -4.0120     0.0180     2.5680 hc         1 1R0       0.060700
     36 H5          -5.3750    -1.0740     2.5870 hc         1 1R0       0.060700
     37 H6          -5.7600    -4.3590    -0.4310 hn         1 1R0       0.498500
     38 H7          -4.7050    -4.5390    -1.7910 hn         1 1R0       0.498500
     39 H8          -1.7930    -1.3970    -2.9300 hn         1 1R0       0.496500
     40 H9          -1.4720    -0.0150    -1.9430 hn         1 1R0       0.496500
     41 H10         -1.5880     3.7250     0.6350 hc         1 1R0       0.064200
     42 H11         -1.0360     2.8850     2.0800 hc         1 1R0       0.064200
     43 H12          0.7920     0.9100     1.5240 ha         1 1R0       0.128000
     44 H13          0.1380     4.4450    -0.8410 ha         1 1R0       0.117000
     45 H14          0.9110     5.1960    -2.9820 h1         1 1R0       0.041367
     46 H15          1.5920     6.1800    -1.6590 h1         1 1R0       0.041367
     47 H16          2.4320     6.0810    -3.2210 h1         1 1R0       0.041367
     48 H17          3.8700     2.2950    -1.1590 ha         1 1R0       0.132000
     49 H18          0.9060    -0.6840    -0.4070 ha         1 1R0       0.130000
     50 H19          0.2700    -3.0710    -0.5120 h4         1 1R0       0.018100
     51 H20          3.8810    -4.2770     1.1410 h4         1 1R0       0.019100
     52 H21          5.6320    -2.6470     1.7670 ha         1 1R0       0.119000
     53 H22          6.4140    -0.2930     1.9270 ha         1 1R0       0.119000
     54 H23          4.9410     1.5650     1.2090 ha         1 1R0       0.121000
@<TRIPOS>BOND
     1     1     2 1   
     2     1    32 1   
     3     1    33 1   
     4     1    34 1   
     5     2     3 1   
     6     2    35 1   
     7     2    36 1   
     8     3     4 ar  
     9     3    10 ar  
    10     4     5 ar  
    11     5     6 1   
    12     5     7 ar  
    13     6    37 1   
    14     6    38 1   
    15     7     8 ar  
    16     8     9 1   
    17     8    10 ar  
    18     9    39 1   
    19     9    40 1   
    20    10    11 1   
    21    11    12 3   
    22    12    13 1   
    23    13    14 1   
    24    13    41 1   
    25    13    42 1   
    26    14    15 ar  
    27    14    16 ar  
    28    15    21 ar  
    29    15    43 1   
    30    16    17 ar  
    31    16    44 1   
    32    17    18 1   
    33    17    20 ar  
    34    18    19 1   
    35    19    45 1   
    36    19    46 1   
    37    19    47 1   
    38    20    21 ar  
    39    20    48 1   
    40    21    22 1   
    41    22    23 ar  
    42    22    31 ar  
    43    23    24 ar  
    44    23    28 ar  
    45    24    25 ar  
    46    24    49 1   
    47    25    26 ar  
    48    25    50 1   
    49    26    27 ar  
    50    27    28 ar  
    51    27    51 1   
    52    28    29 ar  
    53    29    30 ar  
    54    29    52 1   
    55    30    31 ar  
    56    30    53 1   
    57    31    54 1   
@<TRIPOS>SUBSTRUCTURE
     1 1R0         1 TEMP              0 ****  ****    0 ROOT
