@<TRIPOS>MOLECULE
1R2
   28    29     1     0     0
SMALL
bcc


@<TRIPOS>ATOM
      1 OAA         -3.8260    -2.5510     0.6190 o          1 1R2      -0.814300
      2 CAN         -4.2100    -1.3690     0.5650 c          1 1R2       0.924200
      3 OAC         -5.3310    -0.9270     0.8770 o          1 1R2      -0.814300
      4 CAR         -3.1910    -0.3480     0.0610 ca         1 1R2      -0.095600
      5 CAK         -1.8960    -0.7490    -0.2540 ca         1 1R2      -0.129000
      6 CAJ         -3.5500     0.9870    -0.0820 ca         1 1R2      -0.185000
      7 CAO         -2.6290     1.9230    -0.5430 ca         1 1R2       0.108100
      8 OAD         -2.9370     3.2260    -0.7030 oh         1 1R2      -0.517100
      9 CAI         -1.3330     1.5290    -0.8590 ca         1 1R2      -0.202000
     10 CAQ         -0.9940     0.1950    -0.7080 ca         1 1R2       0.066100
     11 OAM          0.2790    -0.2070    -1.0570 os         1 1R2      -0.244200
     12 CAP          1.2870    -0.0380    -0.1700 ca         1 1R2       0.156100
     13 CAL          2.5650    -0.2990    -0.6490 ca         1 1R2      -0.117000
     14 CAS          3.6370    -0.1570     0.2140 ca         1 1R2      -0.150200
     15 NAT          4.9770    -0.4300    -0.2940 no         1 1R2       0.315200
     16 OAE          5.9100    -0.2620     0.4540 o          1 1R2      -0.222000
     17 OAB          5.0870    -0.8080    -1.4360 o          1 1R2      -0.222000
     18 CAH          3.4850     0.2370     1.5350 ca         1 1R2      -0.119000
     19 CAF          2.2020     0.4910     1.9870 ca         1 1R2      -0.109000
     20 CAG          1.1020     0.3580     1.1510 ca         1 1R2      -0.152000
     21 H2          -1.6010    -1.7850    -0.1500 ha         1 1R2       0.167000
     22 H3          -4.5580     1.2940     0.1700 ha         1 1R2       0.154000
     23 H4          -3.8540     3.3860    -0.4540 ho         1 1R2       0.420000
     24 H5          -0.6080     2.2500    -1.2190 ha         1 1R2       0.136000
     25 H6           2.7000    -0.6030    -1.6780 ha         1 1R2       0.178000
     26 H7           4.3310     0.3440     2.1960 ha         1 1R2       0.159000
     27 H8           2.0500     0.7970     3.0130 ha         1 1R2       0.139000
     28 H9           0.1130     0.5640     1.5380 ha         1 1R2       0.170000
@<TRIPOS>BOND
     1     1     2 1   
     2     2     3 1   
     3     2     4 1   
     4     4     5 ar  
     5     4     6 ar  
     6     5    10 ar  
     7     5    21 1   
     8     6     7 ar  
     9     6    22 1   
    10     7     8 1   
    11     7     9 ar  
    12     8    23 1   
    13     9    10 ar  
    14     9    24 1   
    15    10    11 1   
    16    11    12 1   
    17    12    13 ar  
    18    12    20 ar  
    19    13    14 ar  
    20    13    25 1   
    21    14    15 1   
    22    14    18 ar  
    23    15    16 1   
    24    15    17 1   
    25    18    19 ar  
    26    18    26 1   
    27    19    20 ar  
    28    19    27 1   
    29    20    28 1   
@<TRIPOS>SUBSTRUCTURE
     1 1R2         1 TEMP              0 ****  ****    0 ROOT
