@<TRIPOS>MOLECULE
1R2
   28    29     1     0     0
SMALL
No Charge or Current Charge


@<TRIPOS>ATOM
      1 OAA         -4.6160    -2.4650     0.0840 o          1 1R2      -0.709000
      2 CAN         -4.7410    -1.2490     0.0220 c          1 1R2       0.713600
      3 OAC         -5.8290    -0.6920     0.0750 o          1 1R2      -0.709000
      4 CAR         -3.4880    -0.3940    -0.1290 ca         1 1R2      -0.095600
      5 CAK         -2.2080    -0.9940    -0.1970 ca         1 1R2      -0.111000
      6 CAJ         -3.5720     1.0190    -0.2070 ca         1 1R2      -0.167000
      7 CAO         -2.4140     1.8000    -0.3530 ca         1 1R2       0.108100
      8 OAD         -2.5060     3.1570    -0.4350 oh         1 1R2      -0.556100
      9 CAI         -1.1550     1.1900    -0.4180 ca         1 1R2      -0.184000
     10 CAQ         -1.0510    -0.2090    -0.3290 ca         1 1R2       0.066100
     11 OAM          0.1730    -0.8360    -0.4040 os         1 1R2      -0.244200
     12 CAP          1.3120    -0.3320     0.1850 ca         1 1R2       0.156100
     13 CAL          2.5410    -0.4830    -0.4770 ca         1 1R2      -0.099000
     14 CAS          3.7370     0.0090     0.1020 ca         1 1R2      -0.150200
     15 NAT          5.0500    -0.1460    -0.6100 no         1 1R2       0.695200
     16 OAE          6.0700     0.2980    -0.0640 o          1 1R2      -0.412000
     17 OAB          5.0560    -0.7120    -1.7120 o          1 1R2      -0.412000
     18 CAH          3.6710     0.6470     1.3650 ca         1 1R2      -0.101000
     19 CAF          2.4410     0.7840     2.0310 ca         1 1R2      -0.091000
     20 CAG          1.2620     0.2930     1.4450 ca         1 1R2      -0.134000
     21 H2          -2.1050    -2.0750    -0.1430 ha         1 1R2       0.149000
     22 H3          -4.5440     1.5050    -0.1580 ha         1 1R2       0.136000
     23 H4          -3.4530     3.4100    -0.3750 ho         1 1R2       0.459000
     24 H5          -0.2660     1.8020    -0.5420 ha         1 1R2       0.118000
     25 H6           2.5530    -0.9800    -1.4440 ha         1 1R2       0.160000
     26 H7           4.5710     1.0360     1.8400 ha         1 1R2       0.141000
     27 H8           2.4010     1.2700     3.0040 ha         1 1R2       0.121000
     28 H9           0.3160     0.3930     1.9700 ha         1 1R2       0.152000
@<TRIPOS>BOND
     1     1     2 1   
     2     2     3 1   
     3     2     4 1   
     4     4     5 ar  
     5     4     6 ar  
     6     5    10 ar  
     7     5    21 1   
     8     6     7 ar  
     9     6    22 1   
    10     7     8 1   
    11     7     9 ar  
    12     8    23 1   
    13     9    10 ar  
    14     9    24 1   
    15    10    11 1   
    16    11    12 1   
    17    12    13 ar  
    18    12    20 ar  
    19    13    14 ar  
    20    13    25 1   
    21    14    15 1   
    22    14    18 ar  
    23    15    16 1   
    24    15    17 1   
    25    18    19 ar  
    26    18    26 1   
    27    19    20 ar  
    28    19    27 1   
    29    20    28 1   
@<TRIPOS>SUBSTRUCTURE
     1 1R2         1 TEMP              0 ****  ****    0 ROOT
