@<TRIPOS>MOLECULE
1R4
   52    52     1     0     0
SMALL
No Charge or Current Charge


@<TRIPOS>ATOM
      1 O01         -3.1030    -3.2720     2.0280 o          1 1R4      -0.645100
      2 C02         -2.4740    -3.2880     0.9740 c          1 1R4       0.581100
      3 C03         -2.1650    -2.0090     0.1430 c3         1 1R4       0.046700
      4 N04         -3.0310    -0.8840     0.5760 ns         1 1R4      -0.506900
      5 C05         -3.7060    -0.0300    -0.2680 c          1 1R4       0.601100
      6 C06         -4.4850     1.0860     0.4330 c3         1 1R4      -0.148400
      7 C07         -3.7890     2.4590     0.2460 c3         1 1R4      -0.042400
      8 C08         -4.4610     3.6310     1.0130 c3         1 1R4       0.010500
      9 C09         -3.5100     4.9000     1.0160 c          1 1R4       0.694000
     10 O10         -3.4330     5.5730    -0.0040 o          1 1R4      -0.739000
     11 O11         -2.9780     5.2230     2.0690 o          1 1R4      -0.739000
     12 O13         -3.7170    -0.1770    -1.4820 o          1 1R4      -0.597100
     13 C14         -0.6660    -1.6370     0.2670 c3         1 1R4       0.039600
     14 S15         -0.2140    -0.1890    -0.7990 ss         1 1R4      -0.347000
     15 C16          1.5850    -0.0080    -0.3500 c3         1 1R4      -0.074400
     16 C17          2.3200     1.1450    -1.0730 c          1 1R4       0.584700
     17 C18          3.7910     1.3740    -0.7710 ca         1 1R4      -0.119600
     18 C19          4.4860     2.4220    -1.4170 ca         1 1R4      -0.078500
     19 C20          5.8470     2.6560    -1.1560 ca         1 1R4      -0.062500
     20 C21          6.5510     1.8450    -0.2380 ca         1 1R4      -0.164200
     21 N22          8.0040     2.0920     0.0420 no         1 1R4       0.694200
     22 O23          8.5790     1.3550     0.8550 o          1 1R4      -0.404000
     23 O24          8.5660     3.0230    -0.5510 o          1 1R4      -0.404000
     24 C25          5.8610     0.7960     0.4110 ca         1 1R4      -0.062500
     25 C26          4.5000     0.5640     0.1480 ca         1 1R4      -0.078500
     26 O27          1.7320     1.8620    -1.8760 o          1 1R4      -0.472100
     27 N28         -1.9910    -4.4650     0.4400 ns         1 1R4      -0.457900
     28 C29         -2.1470    -5.8040     1.0560 c3         1 1R4      -0.055000
     29 C30         -1.6310    -6.9460     0.1340 c          1 1R4       0.714000
     30 O31         -2.1110    -8.0610     0.2770 o          1 1R4      -0.734000
     31 O32         -0.7980    -6.6770    -0.7230 o          1 1R4      -0.734000
     32 N01         -5.8690     3.8610     0.5210 n8         1 1R4      -1.000200
     33 H031        -2.3820    -2.2510    -0.9050 h1         1 1R4       0.084700
     34 H041        -3.1310    -0.7140     1.5700 hn         1 1R4       0.312500
     35 H062        -5.4900     1.1360    -0.0010 hc         1 1R4       0.053700
     36 H061        -4.5550     0.8770     1.5080 hc         1 1R4       0.053700
     37 H072        -2.7520     2.3690     0.5940 hc         1 1R4       0.055200
     38 H071        -3.7350     2.7020    -0.8220 hc         1 1R4       0.055200
     39 H081        -4.5500     3.3160     2.0620 h1         1 1R4       0.029700
     40 H141        -0.4350    -1.3950     1.3120 h1         1 1R4       0.069200
     41 H142        -0.0460    -2.4920    -0.0290 h1         1 1R4       0.069200
     42 H161         1.6680     0.1690     0.7290 h1         1 1R4       0.078700
     43 H162         2.1100    -0.9410    -0.5900 h1         1 1R4       0.078700
     44 H191         3.9730     3.0650    -2.1300 ha         1 1R4       0.143500
     45 H201         6.3470     3.4730    -1.6740 ha         1 1R4       0.151000
     46 H251         6.3740     0.1520     1.1240 ha         1 1R4       0.151000
     47 H261         4.0110    -0.2550     0.6710 ha         1 1R4       0.143500
     48 H281        -1.4830    -4.4060    -0.4380 hn         1 1R4       0.341500
     49 H292        -1.5830    -5.8360     1.9960 h1         1 1R4       0.035200
     50 H291        -3.2090    -5.9790     1.2720 h1         1 1R4       0.035200
     51 H01         -6.3050     4.5980     1.0890 hn         1 1R4       0.379500
     52 H011        -5.8180     4.2880    -0.4130 hn         1 1R4       0.379500
@<TRIPOS>BOND
     1     1     2 2   
     2     2     3 1   
     3     2    27 1   
     4     3     4 1   
     5     3    13 1   
     6     3    33 1   
     7     4     5 1   
     8     4    34 1   
     9     5     6 1   
    10     5    12 2   
    11     6     7 1   
    12     6    35 1   
    13     6    36 1   
    14     7     8 1   
    15     7    37 1   
    16     7    38 1   
    17     8     9 1   
    18     8    32 1   
    19     8    39 1   
    20     9    10 1   
    21     9    11 1   
    22    13    14 1   
    23    13    40 1   
    24    13    41 1   
    25    14    15 1   
    26    15    16 1   
    27    15    42 1   
    28    15    43 1   
    29    16    17 1   
    30    16    26 2   
    31    17    18 ar  
    32    17    25 ar  
    33    18    19 ar  
    34    18    44 1   
    35    19    20 ar  
    36    19    45 1   
    37    20    21 1   
    38    20    24 ar  
    39    21    22 1   
    40    21    23 1   
    41    24    25 ar  
    42    24    46 1   
    43    25    47 1   
    44    27    28 1   
    45    27    48 1   
    46    28    29 1   
    47    28    49 1   
    48    28    50 1   
    49    29    30 1   
    50    29    31 1   
    51    32    51 1   
    52    32    52 1   
@<TRIPOS>SUBSTRUCTURE
     1 1R4         1 TEMP              0 ****  ****    0 ROOT
