@<TRIPOS>MOLECULE
1R4
   52    52     1     0     0
SMALL
abcg2


@<TRIPOS>ATOM
      1 O01         -2.5170    -2.3650     1.8280 o          1 1R4      -0.645100
      2 C02         -2.1300    -2.4130     0.6690 c          1 1R4       0.581100
      3 C03         -1.5500    -1.1760    -0.0310 c3         1 1R4       0.046700
      4 N04         -2.2120     0.0240     0.4010 ns         1 1R4      -0.506900
      5 C05         -3.5280     0.2140     0.1780 c          1 1R4       0.601100
      6 C06         -4.1130     1.4670     0.7820 c3         1 1R4      -0.148400
      7 C07         -5.2230     2.0750    -0.0650 c3         1 1R4      -0.042400
      8 C08         -5.8450     3.3170     0.5780 c3         1 1R4       0.010500
      9 C09         -6.8400     3.9520    -0.4270 c          1 1R4       0.694000
     10 O10         -8.0580     3.8490    -0.1760 o          1 1R4      -0.739000
     11 O11         -6.3310     4.4970    -1.4280 o          1 1R4      -0.739000
     12 O13         -4.1850    -0.5890    -0.4700 o          1 1R4      -0.597100
     13 C14         -0.0620    -1.1000     0.2910 c3         1 1R4       0.039600
     14 S15          0.6770     0.3350    -0.5460 ss         1 1R4      -0.347000
     15 C16          2.3850     0.0500    -0.0340 c3         1 1R4      -0.074400
     16 C17          3.2680     1.1270    -0.6030 c          1 1R4       0.584700
     17 C18          4.7310     1.0620    -0.3110 ca         1 1R4      -0.119600
     18 C19          5.5600     2.0570    -0.8290 ca         1 1R4      -0.078500
     19 C20          6.9200     2.0360    -0.5890 ca         1 1R4      -0.062500
     20 C21          7.4450     1.0040     0.1760 ca         1 1R4      -0.164200
     21 N22          8.8820     0.9720     0.4310 no         1 1R4       0.694200
     22 O23          9.3190     0.0570     1.0860 o          1 1R4      -0.404000
     23 O24          9.5560     1.8620    -0.0260 o          1 1R4      -0.404000
     24 C25          6.6460     0.0040     0.7050 ca         1 1R4      -0.062500
     25 C26          5.2850     0.0410     0.4570 ca         1 1R4      -0.078500
     26 O27          2.8090     2.0190    -1.2770 o          1 1R4      -0.472100
     27 N28         -2.1100    -3.5190    -0.0700 ns         1 1R4      -0.457900
     28 C29         -2.5300    -4.8150     0.3940 c3         1 1R4      -0.055000
     29 C30         -2.3810    -5.8710    -0.7210 c          1 1R4       0.714000
     30 O31         -2.7020    -7.0280    -0.4020 o          1 1R4      -0.734000
     31 O32         -1.9610    -5.4730    -1.8250 o          1 1R4      -0.734000
     32 N01         -6.4050     2.9760     1.8770 n8         1 1R4      -1.000200
     33 H031        -1.6690    -1.2870    -1.1140 h1         1 1R4       0.084700
     34 H041        -1.7200     0.6630     1.0050 hn         1 1R4       0.312500
     35 H062        -4.5090     1.2130     1.7700 hc         1 1R4       0.053700
     36 H061        -3.3240     2.2050     0.9520 hc         1 1R4       0.053700
     37 H072        -4.8310     2.3440    -1.0470 hc         1 1R4       0.055200
     38 H071        -6.0060     1.3290    -0.2310 hc         1 1R4       0.055200
     39 H081        -5.0410     4.0440     0.7450 h1         1 1R4       0.029700
     40 H141         0.0920    -1.0200     1.3700 h1         1 1R4       0.069200
     41 H142         0.4260    -2.0120    -0.0550 h1         1 1R4       0.069200
     42 H161         2.4620     0.0500     1.0570 h1         1 1R4       0.078700
     43 H162         2.7280    -0.9300    -0.3780 h1         1 1R4       0.078700
     44 H191         5.1420     2.8570    -1.4240 ha         1 1R4       0.143500
     45 H201         7.5500     2.8120    -0.9970 ha         1 1R4       0.151000
     46 H251         7.0630    -0.7950     1.2990 ha         1 1R4       0.151000
     47 H261         4.6710    -0.7430     0.8770 ha         1 1R4       0.143500
     48 H281        -1.8170    -3.4920    -1.0380 hn         1 1R4       0.341500
     49 H292        -1.9420    -5.1280     1.2620 h1         1 1R4       0.035200
     50 H291        -3.5740    -4.7900     0.7210 h1         1 1R4       0.035200
     51 H01         -6.6680     3.8310     2.3530 hn         1 1R4       0.379500
     52 H011        -7.2850     2.4990     1.7160 hn         1 1R4       0.379500
@<TRIPOS>BOND
     1     1     2 2   
     2     2     3 1   
     3     2    27 1   
     4     3     4 1   
     5     3    13 1   
     6     3    33 1   
     7     4     5 1   
     8     4    34 1   
     9     5     6 1   
    10     5    12 2   
    11     6     7 1   
    12     6    35 1   
    13     6    36 1   
    14     7     8 1   
    15     7    37 1   
    16     7    38 1   
    17     8     9 1   
    18     8    32 1   
    19     8    39 1   
    20     9    10 1   
    21     9    11 1   
    22    13    14 1   
    23    13    40 1   
    24    13    41 1   
    25    14    15 1   
    26    15    16 1   
    27    15    42 1   
    28    15    43 1   
    29    16    17 1   
    30    16    26 2   
    31    17    18 ar  
    32    17    25 ar  
    33    18    19 ar  
    34    18    44 1   
    35    19    20 ar  
    36    19    45 1   
    37    20    21 1   
    38    20    24 ar  
    39    21    22 1   
    40    21    23 1   
    41    24    25 ar  
    42    24    46 1   
    43    25    47 1   
    44    27    28 1   
    45    27    48 1   
    46    28    29 1   
    47    28    49 1   
    48    28    50 1   
    49    29    30 1   
    50    29    31 1   
    51    32    51 1   
    52    32    52 1   
@<TRIPOS>SUBSTRUCTURE
     1 1R4         1 TEMP              0 ****  ****    0 ROOT
