@<TRIPOS>MOLECULE
1R5
   29    31     1     0     0
SMALL
abcg2


@<TRIPOS>ATOM
      1 F           -6.2380     0.6400     0.1290 f          1 1R5      -0.176000
      2 C10         -4.9240     0.3720     0.0820 ca         1 1R5       0.178000
      3 C9          -4.4690    -0.8340     0.5790 ca         1 1R5      -0.152500
      4 C8          -3.1100    -1.1030     0.5260 ca         1 1R5      -0.071000
      5 C11         -4.0670     1.3080    -0.4640 ca         1 1R5      -0.152500
      6 C12         -2.7120     1.0220    -0.5080 ca         1 1R5      -0.071000
      7 C7          -2.2100    -0.1840    -0.0150 cp         1 1R5      -0.058000
      8 C6          -0.7660    -0.4840    -0.0680 cp         1 1R5       0.007000
      9 C5           0.1690     0.5160     0.1530 ca         1 1R5      -0.144000
     10 C4           1.5320     0.2310     0.0970 ca         1 1R5       0.067600
     11 N            2.4650     1.2170     0.3260 ns         1 1R5      -0.354100
     12 C            3.8100     1.0500     0.2980 c          1 1R5       0.525200
     13 O            4.6050     1.9590     0.5120 o          1 1R5      -0.570000
     14 C13         -0.3150    -1.7850    -0.3450 ca         1 1R5      -0.124000
     15 C14          1.0300    -2.0650    -0.4020 ca         1 1R5      -0.064000
     16 C3           1.9870    -1.0650    -0.1830 ca         1 1R5      -0.082800
     17 C2           3.3960    -1.3090    -0.2340 cc         1 1R5      -0.169200
     18 C1           4.2710    -0.3080    -0.0080 cd         1 1R5       0.027900
     19 O1           5.5960    -0.4810    -0.0450 oh         1 1R5      -0.519100
     20 H1          -5.1590    -1.5480     1.0080 ha         1 1R5       0.134000
     21 H2          -2.7510    -2.0380     0.9350 ha         1 1R5       0.120000
     22 H3          -4.4500     2.2400    -0.8590 ha         1 1R5       0.134000
     23 H4          -2.0420     1.7460    -0.9550 ha         1 1R5       0.120000
     24 H5          -0.1520     1.5220     0.3960 ha         1 1R5       0.121000
     25 H6           2.1340     2.1500     0.5370 hn         1 1R5       0.332500
     26 H7          -1.0310    -2.5730    -0.5400 ha         1 1R5       0.121000
     27 H8           1.3640    -3.0700    -0.6280 ha         1 1R5       0.122000
     28 H9           3.7520    -2.3080    -0.4570 ha         1 1R5       0.206000
     29 H10          6.0210     0.3650     0.1600 ho         1 1R5       0.493000
@<TRIPOS>BOND
     1     1     2 1   
     2     2     3 ar  
     3     2     5 ar  
     4     3     4 ar  
     5     3    20 1   
     6     4     7 ar  
     7     4    21 1   
     8     5     6 ar  
     9     5    22 1   
    10     6     7 ar  
    11     6    23 1   
    12     7     8 1   
    13     8     9 ar  
    14     8    14 ar  
    15     9    10 ar  
    16     9    24 1   
    17    10    11 1   
    18    10    16 ar  
    19    11    12 1   
    20    11    25 1   
    21    12    13 2   
    22    12    18 1   
    23    14    15 ar  
    24    14    26 1   
    25    15    16 ar  
    26    15    27 1   
    27    16    17 1   
    28    17    18 2   
    29    17    28 1   
    30    18    19 1   
    31    19    29 1   
@<TRIPOS>SUBSTRUCTURE
     1 1R5         1 TEMP              0 ****  ****    0 ROOT
