@<TRIPOS>MOLECULE
1R5
   29    31     1     0     0
SMALL
No Charge or Current Charge


@<TRIPOS>ATOM
      1 F           -6.3420     0.6580     0.1320 f          1 1R5      -0.176000
      2 C10         -5.0200     0.3850     0.0840 ca         1 1R5       0.178000
      3 C9          -4.5440    -0.8470     0.5530 ca         1 1R5      -0.152500
      4 C8          -3.1670    -1.1320     0.5030 ca         1 1R5      -0.071000
      5 C11         -4.1290     1.3360    -0.4340 ca         1 1R5      -0.152500
      6 C12         -2.7530     1.0520    -0.4840 ca         1 1R5      -0.071000
      7 C7          -2.2430    -0.1870    -0.0170 cp         1 1R5      -0.058000
      8 C6          -0.7770    -0.4900    -0.0700 cp         1 1R5       0.007000
      9 C5           0.1890     0.5250     0.1420 ca         1 1R5      -0.144000
     10 C4           1.5620     0.2370     0.0910 ca         1 1R5       0.067600
     11 N            2.5180     1.2420     0.3060 ns         1 1R5      -0.354100
     12 C            3.8800     1.0870     0.2830 c          1 1R5       0.525200
     13 O            4.6450     2.0220     0.4810 o          1 1R5      -0.570000
     14 C13         -0.3080    -1.8010    -0.3340 ca         1 1R5      -0.124000
     15 C14          1.0670    -2.0890    -0.3860 ca         1 1R5      -0.064000
     16 C3           2.0120    -1.0700    -0.1730 ca         1 1R5      -0.082800
     17 C2           3.4470    -1.3670    -0.2250 cc         1 1R5      -0.169200
     18 C1           4.3280    -0.3220    -0.0040 cd         1 1R5       0.027900
     19 O1           5.6770    -0.4990    -0.0320 oh         1 1R5      -0.519100
     20 H1          -5.2390    -1.5780     0.9570 ha         1 1R5       0.134000
     21 H2          -2.8130    -2.0870     0.8830 ha         1 1R5       0.120000
     22 H3          -4.5060     2.2880    -0.7990 ha         1 1R5       0.134000
     23 H4          -2.0780     1.7950    -0.9020 ha         1 1R5       0.120000
     24 H5          -0.1330     1.5400     0.3620 ha         1 1R5       0.121000
     25 H6           2.1780     2.1760     0.4960 hn         1 1R5       0.332500
     26 H7          -1.0170    -2.6050    -0.5160 ha         1 1R5       0.121000
     27 H8           1.3970    -3.1040    -0.5950 ha         1 1R5       0.122000
     28 H9           3.8250    -2.3650    -0.4280 ha         1 1R5       0.206000
     29 H10          6.0800     0.3820     0.1520 ho         1 1R5       0.493000
@<TRIPOS>BOND
     1     1     2 1   
     2     2     3 ar  
     3     2     5 ar  
     4     3     4 ar  
     5     3    20 1   
     6     4     7 ar  
     7     4    21 1   
     8     5     6 ar  
     9     5    22 1   
    10     6     7 ar  
    11     6    23 1   
    12     7     8 1   
    13     8     9 ar  
    14     8    14 ar  
    15     9    10 ar  
    16     9    24 1   
    17    10    11 1   
    18    10    16 ar  
    19    11    12 1   
    20    11    25 1   
    21    12    13 2   
    22    12    18 1   
    23    14    15 ar  
    24    14    26 1   
    25    15    16 ar  
    26    15    27 1   
    27    16    17 1   
    28    17    18 2   
    29    17    28 1   
    30    18    19 1   
    31    19    29 1   
@<TRIPOS>SUBSTRUCTURE
     1 1R5         1 TEMP              0 ****  ****    0 ROOT
