@<TRIPOS>MOLECULE
1R7
   64    68     1     0     0
SMALL
No Charge or Current Charge


@<TRIPOS>ATOM
      1 C4           0.2750    -3.1880     1.2410 ca         1 1R7      -0.014500
      2 C5          -1.1290    -3.1270     1.2870 ca         1 1R7      -0.117500
      3 C6          -1.8830    -3.1540     0.0990 ca         1 1R7      -0.065300
      4 C7          -3.4010    -3.0780     0.1520 c3         1 1R7       0.146300
      5 C13         -6.5750     2.0770     0.0340 ca         1 1R7      -0.089000
      6 C15         -7.0180     4.4320    -0.0580 ca         1 1R7       0.301900
      7 C17         -4.7980     3.7060    -0.1100 ca         1 1R7       0.388900
      8 C24          4.7400    -1.4430    -0.6240 c6         1 1R7      -0.055900
      9 C28          2.6880    -0.5910     0.5800 c6         1 1R7      -0.055900
     10 C1          -1.2190    -3.2390    -1.1400 ca         1 1R7      -0.117500
     11 C2           0.1840    -3.3000    -1.1930 ca         1 1R7      -0.014500
     12 C3           0.9370    -3.2760    -0.0010 ca         1 1R7      -0.257500
     13 N8          -3.8590    -1.6910     0.1050 ns         1 1R7      -0.503900
     14 C9          -5.1820    -1.3110     0.1380 c          1 1R7       0.659100
     15 O10         -6.0780    -2.1410     0.2120 o          1 1R7      -0.563100
     16 N11         -5.4430     0.0860     0.0830 n          1 1R7      -0.127200
     17 C12         -6.7350     0.6430     0.1070 cc         1 1R7      -0.144400
     18 C14         -7.5160     3.1120     0.0230 ca         1 1R7      -0.107000
     19 N16         -5.6890     4.7350    -0.1240 nb         1 1R7      -0.670000
     20 C18         -5.2340     2.3710    -0.0310 ca         1 1R7      -0.146000
     21 C19         -4.4910     1.1260    -0.0020 cc         1 1R7      -0.180400
     22 S20          2.7400    -3.3340    -0.0750 sy         1 1R7       1.033500
     23 O21          3.2560    -3.6400     1.2660 o          1 1R7      -0.516000
     24 O22          3.1210    -4.1550    -1.2330 o          1 1R7      -0.516000
     25 C23          3.2050    -1.6070    -0.4740 c6         1 1R7      -0.266700
     26 C25          5.1210     0.0230    -0.9440 c6         1 1R7       0.172800
     27 N26          4.6130     0.9920     0.0850 n3         1 1R7      -0.713600
     28 C27          3.1250     0.8530     0.2280 c6         1 1R7       0.172800
     29 C29          5.0330     2.4120    -0.2050 c6         1 1R7       0.191500
     30 C30          4.5260     3.4130     0.8830 c6         1 1R7      -0.115400
     31 C31          5.0660     4.8410     0.6510 c6         1 1R7       0.154100
     32 O32          6.5030     4.8220     0.5920 os         1 1R7      -0.442000
     33 C33          7.0160     4.0300    -0.4940 c6         1 1R7       0.154100
     34 C34          6.5850     2.5570    -0.3260 c6         1 1R7      -0.115400
     35 H1           0.8390    -3.1610     2.1720 ha         1 1R7       0.141000
     36 H2          -1.6300    -3.0550     2.2500 ha         1 1R7       0.123500
     37 H3          -3.8310    -3.6280    -0.6960 h1         1 1R7       0.076200
     38 H4          -3.7650    -3.5470     1.0760 h1         1 1R7       0.076200
     39 H6          -3.7400     3.9590    -0.1630 h4         1 1R7       0.015100
     40 H7           5.2480    -1.7510     0.3020 hc         1 1R7       0.065450
     41 H8           5.1190    -2.0980    -1.4200 hc         1 1R7       0.065450
     42 H9           1.5920    -0.6250     0.6450 hc         1 1R7       0.065450
     43 H10          3.0700    -0.8470     1.5780 hc         1 1R7       0.065450
     44 H11         -1.7900    -3.2540    -2.0650 ha         1 1R7       0.123500
     45 H12          0.6810    -3.3610    -2.1600 ha         1 1R7       0.141000
     46 H13         -3.1660    -0.9600     0.0440 hn         1 1R7       0.333500
     47 H14         -7.5840    -0.0310     0.1720 h4         1 1R7       0.243000
     48 H15         -8.5830     2.9170     0.0730 ha         1 1R7       0.123000
     49 H16         -3.4340     0.8840    -0.0320 h4         1 1R7       0.221000
     50 H17          2.7220    -1.4060    -1.4390 h1         1 1R7       0.089700
     51 H18          6.2160     0.0490    -1.0090 h1         1 1R7       0.033950
     52 H19          4.7290     0.2860    -1.9380 h1         1 1R7       0.033950
     53 H21          2.6250     1.1620    -0.7010 h1         1 1R7       0.033950
     54 H22          2.7420     1.4940     1.0330 h1         1 1R7       0.033950
     55 H23          4.5980     2.7230    -1.1670 h1         1 1R7       0.018700
     56 H24          3.4320     3.4770     0.8810 hc         1 1R7       0.056700
     57 H25          4.8260     3.0660     1.8810 hc         1 1R7       0.056700
     58 H26          4.6680     5.2530    -0.2890 h1         1 1R7       0.043700
     59 H27          4.7510     5.5000     1.4730 h1         1 1R7       0.043700
     60 H28          6.6410     4.4330    -1.4470 h1         1 1R7       0.043700
     61 H29          8.1130     4.1020    -0.5020 h1         1 1R7       0.043700
     62 H30          7.0720     2.1320     0.5620 hc         1 1R7       0.056700
     63 H31          6.9660     2.0070    -1.1940 hc         1 1R7       0.056700
     64 H5          -7.7040     5.2780    -0.0710 h4         1 1R7       0.015100
@<TRIPOS>BOND
     1     1     2 ar  
     2     1    12 ar  
     3     1    35 1   
     4     2     3 ar  
     5     2    36 1   
     6     3     4 1   
     7     3    10 ar  
     8     4    13 1   
     9     4    37 1   
    10     4    38 1   
    11     5    17 2   
    12     5    18 ar  
    13     5    20 ar  
    14     6    18 ar  
    15     6    19 ar  
    16     6    64 1   
    17     7    19 ar  
    18     7    20 ar  
    19     7    39 1   
    20     8    25 1   
    21     8    26 1   
    22     8    40 1   
    23     8    41 1   
    24     9    25 1   
    25     9    28 1   
    26     9    42 1   
    27     9    43 1   
    28    10    11 ar  
    29    10    44 1   
    30    11    12 ar  
    31    11    45 1   
    32    12    22 1   
    33    13    14 1   
    34    13    46 1   
    35    14    15 2   
    36    14    16 1   
    37    16    17 1   
    38    16    21 1   
    39    17    47 1   
    40    18    48 1   
    41    20    21 2   
    42    21    49 1   
    43    22    23 2   
    44    22    24 2   
    45    22    25 1   
    46    25    50 1   
    47    26    27 1   
    48    26    51 1   
    49    26    52 1   
    50    27    28 1   
    51    27    29 1   
    52    28    53 1   
    53    28    54 1   
    54    29    30 1   
    55    29    34 1   
    56    29    55 1   
    57    30    31 1   
    58    30    56 1   
    59    30    57 1   
    60    31    32 1   
    61    31    58 1   
    62    31    59 1   
    63    32    33 1   
    64    33    34 1   
    65    33    60 1   
    66    33    61 1   
    67    34    62 1   
    68    34    63 1   
@<TRIPOS>SUBSTRUCTURE
     1 1R7         1 TEMP              0 ****  ****    0 ROOT
