@<TRIPOS>MOLECULE
1R7
   64    68     1     0     0
SMALL
abcg2


@<TRIPOS>ATOM
      1 C4          -0.2010    -2.2350     0.9310 ca         1 1R7      -0.014500
      2 C5          -1.5140    -2.1620     0.4960 ca         1 1R7      -0.117500
      3 C6          -1.8770    -2.6600    -0.7520 ca         1 1R7      -0.065300
      4 C7          -3.3090    -2.6240    -1.2270 c3         1 1R7       0.146300
      5 C13         -6.6090     1.6990     1.0270 ca         1 1R7      -0.089000
      6 C15         -7.7240     3.7930     1.1160 ca         1 1R7       0.301900
      7 C17         -6.9220     3.1340    -0.9390 ca         1 1R7       0.388900
      8 C24          4.7140    -1.4670     0.1840 c6         1 1R7      -0.055900
      9 C28          2.6330    -0.1410     0.4980 c6         1 1R7      -0.055900
     10 C1          -0.9020    -3.2340    -1.5620 ca         1 1R7      -0.117500
     11 C2           0.4150    -3.3180    -1.1410 ca         1 1R7      -0.014500
     12 C3           0.7550    -2.8100     0.1050 ca         1 1R7      -0.257500
     13 N8          -3.9910    -1.3870    -0.9260 ns         1 1R7      -0.503900
     14 C9          -4.8580    -1.2670     0.0850 c          1 1R7       0.659100
     15 O10         -5.1100    -2.1140     0.9110 o          1 1R7      -0.563100
     16 N11         -5.5130    -0.0020     0.1480 n          1 1R7      -0.127200
     17 C12         -6.0440     0.4780     1.3170 cc         1 1R7      -0.144400
     18 C14         -7.2930     2.6880     1.7810 ca         1 1R7      -0.107000
     19 N16         -7.5470     4.0210    -0.2250 nb         1 1R7      -0.670000
     20 C18         -6.4120     1.9380    -0.3730 ca         1 1R7      -0.146000
     21 C19         -5.7260     0.8590    -0.8890 cc         1 1R7      -0.180400
     22 S20          2.4430    -2.8930     0.6410 sy         1 1R7       1.033500
     23 O21          2.4670    -2.7820     2.1000 o          1 1R7      -0.516000
     24 O22          3.0610    -4.0660     0.0210 o          1 1R7      -0.516000
     25 C23          3.2130    -1.4250    -0.0670 c6         1 1R7      -0.266700
     26 C25          5.3580    -0.2100    -0.3860 c6         1 1R7       0.172800
     27 N26          4.7960     1.0030     0.1860 n3         1 1R7      -0.713600
     28 C27          3.3680     1.0580    -0.0850 c6         1 1R7       0.172800
     29 C29          5.4960     2.2090    -0.2660 c6         1 1R7       0.191500
     30 C30          4.9180     3.4710     0.3810 c6         1 1R7      -0.115400
     31 C31          5.7390     4.7030     0.0350 c6         1 1R7       0.154100
     32 O32          7.0930     4.5680     0.3960 os         1 1R7      -0.442000
     33 C33          7.6810     3.4700    -0.2600 c6         1 1R7       0.154100
     34 C34          6.9900     2.1550     0.0680 c6         1 1R7      -0.115400
     35 H1           0.0660    -1.8480     1.9050 ha         1 1R7       0.141000
     36 H2          -2.2530    -1.7160     1.1480 ha         1 1R7       0.123500
     37 H3          -3.3440    -2.7780    -2.3050 h1         1 1R7       0.076200
     38 H4          -3.8640    -3.4470    -0.7760 h1         1 1R7       0.076200
     39 H6          -6.7950     3.3370    -1.9980 h4         1 1R7       0.015100
     40 H7           4.9120    -1.5200     1.2580 hc         1 1R7       0.065450
     41 H8           5.1690    -2.3380    -0.2860 hc         1 1R7       0.065450
     42 H9           1.5710    -0.0440     0.2650 hc         1 1R7       0.065450
     43 H10          2.7390    -0.1310     1.5850 hc         1 1R7       0.065450
     44 H11         -1.1710    -3.6230    -2.5360 ha         1 1R7       0.123500
     45 H12          1.1580    -3.7720    -1.7820 ha         1 1R7       0.141000
     46 H13         -3.7330    -0.5790    -1.4710 hn         1 1R7       0.333500
     47 H14         -5.9580    -0.0660     2.2410 h4         1 1R7       0.243000
     48 H15         -7.4720     2.5750     2.8420 ha         1 1R7       0.123000
     49 H16         -5.4310     0.6370    -1.9010 h4         1 1R7       0.221000
     50 H17          3.0110    -1.4960    -1.1420 h1         1 1R7       0.089700
     51 H18          6.4220    -0.2670    -0.1650 h1         1 1R7       0.033950
     52 H19          5.2600    -0.2230    -1.4860 h1         1 1R7       0.033950
     53 H21          3.1630     1.1250    -1.1680 h1         1 1R7       0.033950
     54 H22          2.9390     1.9480     0.3720 h1         1 1R7       0.033950
     55 H23          5.3990     2.3170    -1.3630 h1         1 1R7       0.018700
     56 H24          3.8960     3.6630     0.0480 hc         1 1R7       0.056700
     57 H25          4.8860     3.3340     1.4660 hc         1 1R7       0.056700
     58 H26          5.6520     4.9100    -1.0420 h1         1 1R7       0.043700
     59 H27          5.3480     5.5730     0.5650 h1         1 1R7       0.043700
     60 H28          7.6640     3.6260    -1.3490 h1         1 1R7       0.043700
     61 H29          8.7270     3.4300     0.0470 h1         1 1R7       0.043700
     62 H30          7.1120     1.9190     1.1300 hc         1 1R7       0.056700
     63 H31          7.5040     1.3770    -0.4990 hc         1 1R7       0.056700
     64 H5          -8.2530     4.5750     1.6480 h4         1 1R7       0.015100
@<TRIPOS>BOND
     1     1     2 ar  
     2     1    12 ar  
     3     1    35 1   
     4     2     3 ar  
     5     2    36 1   
     6     3     4 1   
     7     3    10 ar  
     8     4    13 1   
     9     4    37 1   
    10     4    38 1   
    11     5    17 2   
    12     5    18 ar  
    13     5    20 ar  
    14     6    18 ar  
    15     6    19 ar  
    16     6    64 1   
    17     7    19 ar  
    18     7    20 ar  
    19     7    39 1   
    20     8    25 1   
    21     8    26 1   
    22     8    40 1   
    23     8    41 1   
    24     9    25 1   
    25     9    28 1   
    26     9    42 1   
    27     9    43 1   
    28    10    11 ar  
    29    10    44 1   
    30    11    12 ar  
    31    11    45 1   
    32    12    22 1   
    33    13    14 1   
    34    13    46 1   
    35    14    15 2   
    36    14    16 1   
    37    16    17 1   
    38    16    21 1   
    39    17    47 1   
    40    18    48 1   
    41    20    21 2   
    42    21    49 1   
    43    22    23 2   
    44    22    24 2   
    45    22    25 1   
    46    25    50 1   
    47    26    27 1   
    48    26    51 1   
    49    26    52 1   
    50    27    28 1   
    51    27    29 1   
    52    28    53 1   
    53    28    54 1   
    54    29    30 1   
    55    29    34 1   
    56    29    55 1   
    57    30    31 1   
    58    30    56 1   
    59    30    57 1   
    60    31    32 1   
    61    31    58 1   
    62    31    59 1   
    63    32    33 1   
    64    33    34 1   
    65    33    60 1   
    66    33    61 1   
    67    34    62 1   
    68    34    63 1   
@<TRIPOS>SUBSTRUCTURE
     1 1R7         1 TEMP              0 ****  ****    0 ROOT
