@<TRIPOS>MOLECULE
1R8
   78    82     1     0     0
SMALL
bcc


@<TRIPOS>ATOM
      1 C2           5.0760    -2.4010     1.2330 cy         1 1R8      -0.095400
      2 C3           5.2950    -3.7680     0.5540 cy         1 1R8      -0.092400
      3 C4           5.6850    -3.0240    -0.7380 cy         1 1R8      -0.095400
      4 C1           4.9950    -1.7760    -0.1790 cy         1 1R8       0.140800
      5 C12          3.5850    -1.5770    -0.6890 c6         1 1R8      -0.095400
      6 O13          5.7500    -0.5950    -0.3840 os         1 1R8      -0.309900
      7 C15          5.1960     0.5580     0.0580 ca         1 1R8       0.151100
      8 C16          6.0630     1.6290     0.2730 ca         1 1R8      -0.158000
      9 C17          5.5770     2.8370     0.7370 ca         1 1R8      -0.092000
     10 C18          4.2210     3.0030     1.0170 ca         1 1R8      -0.109300
     11 C20          3.6860     4.3200     1.5100 c3         1 1R8      -0.024100
     12 C21          3.5910     5.3620     0.3980 c3         1 1R8      -0.087100
     13 C19          3.3790     1.9240     0.7910 ca         1 1R8      -0.091000
     14 C14          3.8310     0.6990     0.2980 ca         1 1R8      -0.150300
     15 C11          2.8730    -0.4470     0.0510 c6         1 1R8       0.232800
     16 N10          1.7210     0.0040    -0.7230 n7         1 1R8      -0.790200
     17 C9           0.6350    -0.9580    -0.7250 c3         1 1R8       0.117800
     18 C6          -0.5810    -0.4190    -1.4720 c3         1 1R8       0.139100
     19 O8          -0.3160    -0.2340    -2.8400 oh         1 1R8      -0.574800
     20 C5          -1.8000    -1.3300    -1.2420 c3         1 1R8       0.076700
     21 C22         -3.0020    -1.0140    -2.1600 c3         1 1R8      -0.045100
     22 C23         -3.6160     0.3310    -1.8820 ca         1 1R8      -0.084300
     23 C24         -4.5370     0.4750    -0.8460 ca         1 1R8      -0.138000
     24 C28         -3.2350     1.4680    -2.5930 ca         1 1R8      -0.118000
     25 C27         -3.7630     2.7070    -2.2600 ca         1 1R8      -0.127000
     26 C26         -4.6490     2.8330    -1.1980 ca         1 1R8      -0.130000
     27 C25         -5.0450     1.7160    -0.4680 ca         1 1R8      -0.080300
     28 C29         -5.9610     1.8560     0.7250 c3         1 1R8      -0.030100
     29 C30         -5.5720     0.9590     1.9150 c3         1 1R8      -0.072400
     30 C33         -6.4490    -0.2870     2.0670 c3         1 1R8      -0.079400
     31 C34         -5.8390    -1.4370     2.8750 c3         1 1R8      -0.074400
     32 C35         -4.8570    -2.3100     2.0800 c3         1 1R8      -0.068400
     33 C36         -3.3790    -1.8790     2.1510 c3         1 1R8      -0.160400
     34 C31         -2.6720    -2.2750     0.8740 c          1 1R8       0.665100
     35 O32         -2.5970    -3.4410     0.5110 o          1 1R8      -0.603100
     36 N7          -2.1950    -1.2450     0.1470 ns         1 1R8      -0.571900
     37 H1           4.2160    -2.2910     1.8950 hc         1 1R8       0.062700
     38 H2           5.9720    -2.0670     1.7580 hc         1 1R8       0.062700
     39 H3           6.0490    -4.4200     0.9930 hc         1 1R8       0.052700
     40 H4           4.3700    -4.3340     0.4490 hc         1 1R8       0.052700
     41 H5           6.7650    -2.8810    -0.8030 hc         1 1R8       0.062700
     42 H6           5.3210    -3.4090    -1.6920 hc         1 1R8       0.062700
     43 H7           3.6220    -1.3350    -1.7570 hc         1 1R8       0.064200
     44 H8           3.0230    -2.5100    -0.5940 hc         1 1R8       0.064200
     45 H9           7.1210     1.5010     0.0790 ha         1 1R8       0.145000
     46 H10          6.2680     3.6560     0.8980 ha         1 1R8       0.131000
     47 H11          2.7000     4.1700     1.9540 hc         1 1R8       0.041700
     48 H12          4.3270     4.7030     2.3090 hc         1 1R8       0.041700
     49 H13          2.9420     5.0170    -0.4080 hc         1 1R8       0.035033
     50 H14          3.1880     6.3030     0.7740 hc         1 1R8       0.035033
     51 H15          4.5720     5.5690    -0.0320 hc         1 1R8       0.035033
     52 H16          2.3240     2.0460     1.0180 ha         1 1R8       0.119000
     53 H17          2.5500    -0.8280     1.0360 h1         1 1R8       0.026700
     54 H18          1.3670     0.8620    -0.3170 hn         1 1R8       0.358800
     55 H20          0.9590    -1.8770    -1.2250 h1         1 1R8       0.040200
     56 H21          0.3390    -1.2500     0.2930 h1         1 1R8       0.040200
     57 H22         -0.8220     0.5800    -1.0850 h1         1 1R8       0.073700
     58 H23          0.0240    -1.0590    -3.2030 ho         1 1R8       0.403000
     59 H24         -1.5040    -2.3640    -1.4380 h1         1 1R8       0.079700
     60 H25         -2.6880    -1.0890    -3.2010 hc         1 1R8       0.061700
     61 H26         -3.7440    -1.8000    -1.9990 hc         1 1R8       0.061700
     62 H27         -4.8570    -0.4120    -0.3100 ha         1 1R8       0.130000
     63 H28         -2.5160     1.3830    -3.3980 ha         1 1R8       0.146000
     64 H29         -3.4660     3.5860    -2.8190 ha         1 1R8       0.132000
     65 H30         -5.0270     3.8120    -0.9260 ha         1 1R8       0.128000
     66 H31         -5.9630     2.9040     1.0290 hc         1 1R8       0.049200
     67 H32         -6.9920     1.6380     0.4240 hc         1 1R8       0.049200
     68 H33         -4.5230     0.6800     1.8110 hc         1 1R8       0.038200
     69 H34         -5.6260     1.5360     2.8410 hc         1 1R8       0.038200
     70 H35         -7.3940     0.0160     2.5260 hc         1 1R8       0.040200
     71 H36         -6.7220    -0.6730     1.0790 hc         1 1R8       0.040200
     72 H37         -5.3610    -1.0540     3.7830 hc         1 1R8       0.042200
     73 H38         -6.6570    -2.0740     3.2180 hc         1 1R8       0.042200
     74 H39         -4.9250    -3.3430     2.4210 hc         1 1R8       0.050700
     75 H40         -5.1900    -2.3310     1.0370 hc         1 1R8       0.050700
     76 H41         -3.2930    -0.8070     2.3280 hc         1 1R8       0.059200
     77 H42         -2.8950    -2.3690     2.9980 hc         1 1R8       0.059200
     78 H43         -2.3520    -0.3150     0.5060 hn         1 1R8       0.311500
@<TRIPOS>BOND
     1     1     2 1   
     2     1     4 1   
     3     1    37 1   
     4     1    38 1   
     5     2     3 1   
     6     2    39 1   
     7     2    40 1   
     8     3     4 1   
     9     3    41 1   
    10     3    42 1   
    11     4     5 1   
    12     4     6 1   
    13     5    15 1   
    14     5    43 1   
    15     5    44 1   
    16     6     7 1   
    17     7     8 ar  
    18     7    14 ar  
    19     8     9 ar  
    20     8    45 1   
    21     9    10 ar  
    22     9    46 1   
    23    10    11 1   
    24    10    13 ar  
    25    11    12 1   
    26    11    47 1   
    27    11    48 1   
    28    12    49 1   
    29    12    50 1   
    30    12    51 1   
    31    13    14 ar  
    32    13    52 1   
    33    14    15 1   
    34    15    16 1   
    35    15    53 1   
    36    16    17 1   
    37    16    54 1   
    38    17    18 1   
    39    17    55 1   
    40    17    56 1   
    41    18    19 1   
    42    18    20 1   
    43    18    57 1   
    44    19    58 1   
    45    20    21 1   
    46    20    36 1   
    47    20    59 1   
    48    21    22 1   
    49    21    60 1   
    50    21    61 1   
    51    22    23 ar  
    52    22    24 ar  
    53    23    27 ar  
    54    23    62 1   
    55    24    25 ar  
    56    24    63 1   
    57    25    26 ar  
    58    25    64 1   
    59    26    27 ar  
    60    26    65 1   
    61    27    28 1   
    62    28    29 1   
    63    28    66 1   
    64    28    67 1   
    65    29    30 1   
    66    29    68 1   
    67    29    69 1   
    68    30    31 1   
    69    30    70 1   
    70    30    71 1   
    71    31    32 1   
    72    31    72 1   
    73    31    73 1   
    74    32    33 1   
    75    32    74 1   
    76    32    75 1   
    77    33    34 1   
    78    33    76 1   
    79    33    77 1   
    80    34    35 2   
    81    34    36 1   
    82    36    78 1   
@<TRIPOS>SUBSTRUCTURE
     1 1R8         1 TEMP              0 ****  ****    0 ROOT
