@<TRIPOS>MOLECULE
1R8
   78    82     1     0     0
SMALL
No Charge or Current Charge


@<TRIPOS>ATOM
      1 C2           5.0010    -2.3150     1.7120 cy         1 1R8      -0.095400
      2 C3           4.7130    -3.8020     1.3090 cy         1 1R8      -0.092400
      3 C4           5.2710    -3.4290    -0.1070 cy         1 1R8      -0.095400
      4 C1           4.8390    -1.9540     0.1940 cy         1 1R8       0.164000
      5 C12          3.3910    -1.6070    -0.2410 c6         1 1R8      -0.095400
      6 O13          5.7300    -0.9500    -0.2910 os         1 1R8      -0.333100
      7 C15          5.4420     0.3810    -0.0930 ca         1 1R8       0.151100
      8 C16          6.4880     1.3130    -0.1780 ca         1 1R8      -0.140000
      9 C17          6.2410     2.6760     0.0450 ca         1 1R8      -0.074000
     10 C18          4.9420     3.1140     0.3650 ca         1 1R8      -0.109300
     11 C20          4.6710     4.5900     0.6220 c3         1 1R8      -0.024100
     12 C21          4.1310     5.3080    -0.6290 c3         1 1R8      -0.087100
     13 C19          3.8920     2.1790     0.4410 ca         1 1R8      -0.073000
     14 C14          4.1240     0.8070     0.1930 ca         1 1R8      -0.150300
     15 C11          2.9750    -0.2100     0.2800 c6         1 1R8       0.232800
     16 N10          1.7930     0.2860    -0.4540 n7         1 1R8      -0.845400
     17 C9           0.4990    -0.4150    -0.2230 c3         1 1R8       0.117800
     18 C6          -0.5820     0.1140    -1.2030 c3         1 1R8       0.162300
     19 O8           0.0740     0.2930    -2.4630 oh         1 1R8      -0.637000
     20 C5          -1.8140    -0.8300    -1.3370 c3         1 1R8       0.076700
     21 C22         -2.9170    -0.2800    -2.2860 c3         1 1R8      -0.045100
     22 C23         -3.6960     0.8910    -1.6850 ca         1 1R8      -0.084300
     23 C24         -4.7360     0.6420    -0.7710 ca         1 1R8      -0.120000
     24 C28         -3.3570     2.2200    -1.9980 ca         1 1R8      -0.100000
     25 C27         -4.0440     3.2830    -1.3870 ca         1 1R8      -0.109000
     26 C26         -5.0540     3.0240    -0.4440 ca         1 1R8      -0.112000
     27 C25         -5.4000     1.6980    -0.1160 ca         1 1R8      -0.080300
     28 C29         -6.4480     1.4230     0.9670 c3         1 1R8      -0.030100
     29 C30         -6.0400     0.2940     1.9550 c3         1 1R8      -0.072400
     30 C33         -6.6920    -1.0800     1.6540 c3         1 1R8      -0.079400
     31 C34         -6.0280    -2.3110     2.3330 c3         1 1R8      -0.074400
     32 C35         -4.8630    -2.9630     1.5360 c3         1 1R8      -0.068400
     33 C36         -3.4420    -2.3910     1.7970 c3         1 1R8      -0.160400
     34 C31         -2.6010    -2.3770     0.5130 c          1 1R8       0.598100
     35 O32         -2.1430    -3.3910     0.0090 o          1 1R8      -0.603100
     36 N7          -2.4010    -1.1240    -0.0180 ns         1 1R8      -0.504900
     37 H1           4.2840    -1.8580     2.4010 hc         1 1R8       0.062700
     38 H2           6.0110    -2.1470     2.1040 hc         1 1R8       0.062700
     39 H3           5.2790    -4.5620     1.8580 hc         1 1R8       0.052700
     40 H4           3.6540    -4.0850     1.3250 hc         1 1R8       0.052700
     41 H5           6.3540    -3.5640    -0.2100 hc         1 1R8       0.062700
     42 H6           4.7800    -3.9100    -0.9600 hc         1 1R8       0.062700
     43 H7           3.3440    -1.6160    -1.3380 hc         1 1R8       0.064200
     44 H8           2.6740    -2.3620     0.1030 hc         1 1R8       0.064200
     45 H9           7.4950     0.9740    -0.4100 ha         1 1R8       0.127000
     46 H10          7.0590     3.3900    -0.0210 ha         1 1R8       0.113000
     47 H11          3.9460     4.7040     1.4370 hc         1 1R8       0.041700
     48 H12          5.5860     5.0960     0.9550 hc         1 1R8       0.041700
     49 H13          3.1880     4.8550    -0.9590 hc         1 1R8       0.035033
     50 H14          3.9480     6.3670    -0.4150 hc         1 1R8       0.035033
     51 H15          4.8530     5.2420    -1.4520 hc         1 1R8       0.035033
     52 H16          2.8930     2.5250     0.6970 ha         1 1R8       0.101000
     53 H17          2.7100    -0.3000     1.3440 h1         1 1R8       0.026700
     54 H18          1.6660     1.2700    -0.1910 hn         1 1R8       0.414000
     55 H20          0.6110    -1.4940    -0.3910 h1         1 1R8       0.040200
     56 H21          0.1570    -0.2760     0.8120 h1         1 1R8       0.040200
     57 H22         -0.9270     1.0870    -0.8260 h1         1 1R8       0.073700
     58 H23          1.0250     0.3250    -2.1880 ho         1 1R8       0.442000
     59 H24         -1.4480    -1.7690    -1.7730 h1         1 1R8       0.079700
     60 H25         -2.4730     0.0030    -3.2480 hc         1 1R8       0.061700
     61 H26         -3.6120    -1.0970    -2.5140 hc         1 1R8       0.061700
     62 H27         -4.9970    -0.3870    -0.5440 ha         1 1R8       0.112000
     63 H28         -2.5550     2.4290    -2.7040 ha         1 1R8       0.128000
     64 H29         -3.7780     4.3100    -1.6290 ha         1 1R8       0.114000
     65 H30         -5.5570     3.8570     0.0420 ha         1 1R8       0.110000
     66 H31         -6.6120     2.3360     1.5530 hc         1 1R8       0.049200
     67 H32         -7.4160     1.1880     0.5080 hc         1 1R8       0.049200
     68 H33         -4.9500     0.2200     1.9730 hc         1 1R8       0.038200
     69 H34         -6.3330     0.5900     2.9700 hc         1 1R8       0.038200
     70 H35         -7.7360    -1.0270     1.9890 hc         1 1R8       0.040200
     71 H36         -6.7470    -1.2500     0.5720 hc         1 1R8       0.040200
     72 H37         -5.7040    -2.0600     3.3510 hc         1 1R8       0.042200
     73 H38         -6.8080    -3.0750     2.4460 hc         1 1R8       0.042200
     74 H39         -4.8390    -4.0360     1.7660 hc         1 1R8       0.050700
     75 H40         -5.0950    -2.9030     0.4650 hc         1 1R8       0.050700
     76 H41         -3.5160    -1.3770     2.1980 hc         1 1R8       0.059200
     77 H42         -2.9450    -3.0280     2.5390 hc         1 1R8       0.059200
     78 H43         -2.8320    -0.3560     0.4820 hn         1 1R8       0.311500
@<TRIPOS>BOND
     1     1     2 1   
     2     1     4 1   
     3     1    37 1   
     4     1    38 1   
     5     2     3 1   
     6     2    39 1   
     7     2    40 1   
     8     3     4 1   
     9     3    41 1   
    10     3    42 1   
    11     4     5 1   
    12     4     6 1   
    13     5    15 1   
    14     5    43 1   
    15     5    44 1   
    16     6     7 1   
    17     7     8 ar  
    18     7    14 ar  
    19     8     9 ar  
    20     8    45 1   
    21     9    10 ar  
    22     9    46 1   
    23    10    11 1   
    24    10    13 ar  
    25    11    12 1   
    26    11    47 1   
    27    11    48 1   
    28    12    49 1   
    29    12    50 1   
    30    12    51 1   
    31    13    14 ar  
    32    13    52 1   
    33    14    15 1   
    34    15    16 1   
    35    15    53 1   
    36    16    17 1   
    37    16    54 1   
    38    17    18 1   
    39    17    55 1   
    40    17    56 1   
    41    18    19 1   
    42    18    20 1   
    43    18    57 1   
    44    19    58 1   
    45    20    21 1   
    46    20    36 1   
    47    20    59 1   
    48    21    22 1   
    49    21    60 1   
    50    21    61 1   
    51    22    23 ar  
    52    22    24 ar  
    53    23    27 ar  
    54    23    62 1   
    55    24    25 ar  
    56    24    63 1   
    57    25    26 ar  
    58    25    64 1   
    59    26    27 ar  
    60    26    65 1   
    61    27    28 1   
    62    28    29 1   
    63    28    66 1   
    64    28    67 1   
    65    29    30 1   
    66    29    68 1   
    67    29    69 1   
    68    30    31 1   
    69    30    70 1   
    70    30    71 1   
    71    31    32 1   
    72    31    72 1   
    73    31    73 1   
    74    32    33 1   
    75    32    74 1   
    76    32    75 1   
    77    33    34 1   
    78    33    76 1   
    79    33    77 1   
    80    34    35 2   
    81    34    36 1   
    82    36    78 1   
@<TRIPOS>SUBSTRUCTURE
     1 1R8         1 TEMP              0 ****  ****    0 ROOT
