@<TRIPOS>MOLECULE
1R9
   46    49     1     0     0
SMALL
abcg2


@<TRIPOS>ATOM
      1 C1          -2.4650     2.5210     0.5570 ca         1 1R9      -0.084300
      2 C2          -2.1420     1.2630     0.0350 ca         1 1R9      -0.045000
      3 C3          -3.1320     0.4080    -0.4260 ca         1 1R9      -0.050000
      4 C4          -4.4720     0.7680    -0.3360 ca         1 1R9      -0.137600
      5 C5          -4.8050     2.0190     0.1760 ca         1 1R9      -0.097000
      6 C6          -3.8070     2.8810     0.6030 ca         1 1R9      -0.105000
      7 C7          -1.3990     3.4550     1.0420 c3         1 1R9      -0.051800
      8 C8          -5.4920    -0.1980    -0.8510 c          1 1R9       0.615700
      9 N9          -6.7160    -0.1120    -0.3030 ns         1 1R9      -0.482900
     10 O10         -5.2100    -1.0180    -1.7120 o          1 1R9      -0.589100
     11 C11         -7.8040    -0.9250    -0.7370 cx         1 1R9       0.049700
     12 C12         -8.7810    -1.3850     0.2940 cx         1 1R9      -0.135900
     13 C13         -7.8480    -2.3680    -0.3450 cx         1 1R9      -0.135900
     14 C14         -0.2820    -0.2890     0.3940 c          1 1R9       0.656700
     15 C15          1.1850    -0.4430     0.3160 cc         1 1R9      -0.326600
     16 C16          1.8610    -1.5690     0.6940 cd         1 1R9       0.353900
     17 N17          3.2060    -1.5240     0.5670 nd         1 1R9      -0.625000
     18 C18          3.6010    -0.3820     0.0940 cc         1 1R9       0.513900
     19 S19          2.3200     0.7330    -0.2200 ss         1 1R9      -0.022400
     20 C20          4.9870    -0.0040    -0.1910 ca         1 1R9      -0.138500
     21 C21          5.2860     0.6270    -1.4010 ca         1 1R9      -0.086000
     22 C22          6.5810     0.9970    -1.7170 ca         1 1R9      -0.111000
     23 C23          7.6070     0.7400    -0.8190 ca         1 1R9      -0.084000
     24 C24          7.3340     0.1220     0.3920 ca         1 1R9      -0.111000
     25 C25          6.0340    -0.2460     0.7020 ca         1 1R9       0.158000
     26 N26         -0.7830     0.8960    -0.0360 ns         1 1R9      -0.159000
     27 O27         -0.9690    -1.1930     0.8300 o          1 1R9      -0.565100
     28 CL1          5.7430    -0.9600     2.2480 cl         1 1R9      -0.170000
     29 H1          -2.8660    -0.5430    -0.8640 ha         1 1R9       0.156000
     30 H2          -5.8330     2.3520     0.2250 ha         1 1R9       0.113000
     31 H3          -4.0790     3.8550     0.9890 ha         1 1R9       0.116000
     32 H4          -0.7680     3.8080     0.2220 hc         1 1R9       0.045700
     33 H5          -1.8360     4.3340     1.5120 hc         1 1R9       0.045700
     34 H6          -0.7430     2.9740     1.7700 hc         1 1R9       0.045700
     35 H7          -6.8880     0.5530     0.4330 hn         1 1R9       0.319500
     36 H8          -8.2020    -0.6690    -1.7150 h1         1 1R9       0.088700
     37 H9          -8.5940    -1.1100     1.3240 hc         1 1R9       0.078200
     38 H10         -9.8270    -1.4050     0.0190 hc         1 1R9       0.078200
     39 H11         -8.2480    -3.0710    -1.0650 hc         1 1R9       0.078200
     40 H12         -7.0310    -2.7490     0.2530 hc         1 1R9       0.078200
     41 H13          1.3870    -2.4630     1.0720 h4         1 1R9       0.066100
     42 H14          4.4900     0.8080    -2.1130 ha         1 1R9       0.122000
     43 H15          6.7890     1.4780    -2.6630 ha         1 1R9       0.123000
     44 H16          8.6240     1.0200    -1.0550 ha         1 1R9       0.122000
     45 H17          8.1300    -0.0680     1.0990 ha         1 1R9       0.134000
     46 H18         -0.1440     1.6230    -0.3220 hn         1 1R9       0.155000
@<TRIPOS>BOND
     1     1     2 ar  
     2     1     6 ar  
     3     1     7 1   
     4     2     3 ar  
     5     2    26 1   
     6     3     4 ar  
     7     3    29 1   
     8     4     5 ar  
     9     4     8 1   
    10     5     6 ar  
    11     5    30 1   
    12     6    31 1   
    13     7    32 1   
    14     7    33 1   
    15     7    34 1   
    16     8     9 1   
    17     8    10 2   
    18     9    11 1   
    19     9    35 1   
    20    11    12 1   
    21    11    13 1   
    22    11    36 1   
    23    12    13 1   
    24    12    37 1   
    25    12    38 1   
    26    13    39 1   
    27    13    40 1   
    28    14    15 1   
    29    14    26 1   
    30    14    27 2   
    31    15    16 2   
    32    15    19 1   
    33    16    17 1   
    34    16    41 1   
    35    17    18 2   
    36    18    19 1   
    37    18    20 1   
    38    20    21 ar  
    39    20    25 ar  
    40    21    22 ar  
    41    21    42 1   
    42    22    23 ar  
    43    22    43 1   
    44    23    24 ar  
    45    23    44 1   
    46    24    25 ar  
    47    24    45 1   
    48    25    28 1   
    49    26    46 1   
@<TRIPOS>SUBSTRUCTURE
     1 1R9         1 TEMP              0 ****  ****    0 ROOT
