@<TRIPOS>MOLECULE
1R9
   46    49     1     0     0
SMALL
No Charge or Current Charge


@<TRIPOS>ATOM
      1 C1          -2.3070     2.1020     0.1180 ca         1 1R9      -0.084300
      2 C2          -2.0290     0.7320    -0.0950 ca         1 1R9      -0.045000
      3 C3          -3.1050    -0.1770    -0.2260 ca         1 1R9      -0.050000
      4 C4          -4.4490     0.2570    -0.1530 ca         1 1R9      -0.137600
      5 C5          -4.7030     1.6320     0.0570 ca         1 1R9      -0.097000
      6 C6          -3.6410     2.5380     0.1910 ca         1 1R9      -0.105000
      7 C7          -1.1800     3.1220     0.2690 c3         1 1R9      -0.051800
      8 C8          -5.5670    -0.7590    -0.3000 c          1 1R9       0.615700
      9 N9          -6.8570    -0.2750    -0.2270 ns         1 1R9      -0.482900
     10 O10         -5.3470    -1.9510    -0.4750 o          1 1R9      -0.589100
     11 C11         -8.0390    -1.0850    -0.3390 cx         1 1R9       0.049700
     12 C12         -9.3560    -0.4570     0.0430 cx         1 1R9      -0.135900
     13 C13         -8.7280    -1.4970     0.9380 cx         1 1R9      -0.135900
     14 C14         -0.0480    -0.8930    -0.4070 c          1 1R9       0.656700
     15 C15          1.4190    -0.8080    -0.3620 cc         1 1R9      -0.326600
     16 C16          2.2270    -1.8960    -0.5770 cd         1 1R9       0.353900
     17 N17          3.5870    -1.6240    -0.4930 nd         1 1R9      -0.625000
     18 C18          3.7830    -0.3420    -0.2030 cc         1 1R9       0.513900
     19 S19          2.3420     0.6350    -0.0400 ss         1 1R9      -0.022400
     20 C20          5.1120     0.2660    -0.0750 ca         1 1R9      -0.138500
     21 C21          5.3750     1.4850    -0.7420 ca         1 1R9      -0.086000
     22 C22          6.6450     2.0810    -0.6760 ca         1 1R9      -0.111000
     23 C23          7.6730     1.4670     0.0540 ca         1 1R9      -0.084000
     24 C24          7.4270     0.2550     0.7190 ca         1 1R9      -0.111000
     25 C25          6.1590    -0.3490     0.6560 ca         1 1R9       0.158000
     26 N26         -0.6630     0.3270    -0.1620 ns         1 1R9      -0.159000
     27 O27         -0.6410    -1.9380    -0.6400 o          1 1R9      -0.565100
     28 Cl1          5.9210    -1.8400     1.5720 cl         1 1R9      -0.170000
     29 H1          -2.9150    -1.2340    -0.3830 ha         1 1R9       0.156000
     30 H2          -5.7170     2.0180     0.1220 ha         1 1R9       0.113000
     31 H3          -3.8620     3.5910     0.3540 ha         1 1R9       0.116000
     32 H4          -0.5450     3.1450    -0.6250 hc         1 1R9       0.045700
     33 H5          -1.5660     4.1370     0.4200 hc         1 1R9       0.045700
     34 H6          -0.5440     2.8840     1.1300 hc         1 1R9       0.045700
     35 H7          -6.9550     0.7220    -0.0880 hn         1 1R9       0.319500
     36 H8          -8.0280    -1.7910    -1.1720 h1         1 1R9       0.088700
     37 H9          -9.3550     0.5750     0.3860 hc         1 1R9       0.078200
     38 H10        -10.2350    -0.7440    -0.5290 hc         1 1R9       0.078200
     39 H11         -9.1840    -2.4840     0.9690 hc         1 1R9       0.078200
     40 H12         -8.2980    -1.1650     1.8800 hc         1 1R9       0.078200
     41 H13          1.8960    -2.9030    -0.7990 h4         1 1R9       0.066100
     42 H14          4.5960     1.9710    -1.3270 ha         1 1R9       0.122000
     43 H15          6.8330     3.0190    -1.1950 ha         1 1R9       0.123000
     44 H16          8.6570     1.9290     0.1070 ha         1 1R9       0.122000
     45 H17          8.2210    -0.2170     1.2920 ha         1 1R9       0.134000
     46 H18         -0.0100     1.0810     0.0020 hn         1 1R9       0.155000
@<TRIPOS>BOND
     1     1     2 ar  
     2     1     6 ar  
     3     1     7 1   
     4     2     3 ar  
     5     2    26 1   
     6     3     4 ar  
     7     3    29 1   
     8     4     5 ar  
     9     4     8 1   
    10     5     6 ar  
    11     5    30 1   
    12     6    31 1   
    13     7    32 1   
    14     7    33 1   
    15     7    34 1   
    16     8     9 1   
    17     8    10 2   
    18     9    11 1   
    19     9    35 1   
    20    11    12 1   
    21    11    13 1   
    22    11    36 1   
    23    12    13 1   
    24    12    37 1   
    25    12    38 1   
    26    13    39 1   
    27    13    40 1   
    28    14    15 1   
    29    14    26 1   
    30    14    27 2   
    31    15    16 2   
    32    15    19 1   
    33    16    17 1   
    34    16    41 1   
    35    17    18 2   
    36    18    19 1   
    37    18    20 1   
    38    20    21 ar  
    39    20    25 ar  
    40    21    22 ar  
    41    21    42 1   
    42    22    23 ar  
    43    22    43 1   
    44    23    24 ar  
    45    23    44 1   
    46    24    25 ar  
    47    24    45 1   
    48    25    28 1   
    49    26    46 1   
@<TRIPOS>SUBSTRUCTURE
     1 1R9         1 TEMP              0 ****  ****    0 ROOT
