@<TRIPOS>MOLECULE
1RA
   53    56     1     0     0
SMALL
bcc


@<TRIPOS>ATOM
      1 C1           2.9350     2.2870    -1.1070 ca         1 1RA      -0.098300
      2 N10          6.4410    -0.9250     0.6320 ns         1 1RA      -0.552900
      3 C11          7.2610    -1.9790     1.1300 cx         1 1RA       0.047700
      4 C12          8.6670    -2.0500     0.6290 cx         1 1RA      -0.133400
      5 C13          7.6660    -3.0810     0.2050 cx         1 1RA      -0.133400
      6 N14          0.9590     1.4690     0.0030 ns         1 1RA      -0.485100
      7 C16          0.0270     0.4790     0.0530 c          1 1RA       0.682700
      8 O17          0.2770    -0.6800    -0.2290 o          1 1RA      -0.562100
      9 C18         -1.3420     0.9080     0.4620 ca         1 1RA      -0.150600
     10 C19         -2.3980     0.0910     0.0720 ca         1 1RA      -0.056000
     11 C2           2.3160     1.3070    -0.3180 ca         1 1RA       0.060600
     12 C20         -2.8460     2.4070     1.6290 ca         1 1RA      -0.098000
     13 C21         -1.5700     2.0540     1.2420 ca         1 1RA      -0.126000
     14 C22         -3.9160     1.6090     1.2320 ca         1 1RA      -0.071800
     15 C23         -3.6780     0.4590     0.4560 ca         1 1RA       0.003600
     16 N24         -4.9150    -0.1380     0.2250 n          1 1RA      -0.241200
     17 C25         -5.8950     0.6290     0.8460 cc         1 1RA      -0.038400
     18 C26         -5.3290     1.6880     1.4610 cd         1 1RA      -0.180200
     19 C27         -5.1290    -1.2990    -0.5020 c          1 1RA       0.775100
     20 O28         -4.2450    -1.9100    -1.0450 o          1 1RA      -0.534000
     21 O29         -6.4030    -1.6220    -0.5050 os         1 1RA      -0.427900
     22 C3           3.0450     0.2250     0.1600 ca         1 1RA      -0.079000
     23 C30         -6.7920    -2.8060    -1.2280 c3         1 1RA       0.161400
     24 C31         -8.2770    -2.9870    -1.0390 c3         1 1RA      -0.101100
     25 C4           4.4000     0.1040    -0.1270 ca         1 1RA      -0.134600
     26 C5           5.0230     1.0710    -0.9090 ca         1 1RA      -0.124000
     27 C6           4.2900     2.1460    -1.3850 ca         1 1RA      -0.119000
     28 C7           2.1640     3.4550    -1.6450 c3         1 1RA      -0.050800
     29 C8           5.1240    -1.0910     0.4030 c          1 1RA       0.677700
     30 O9           4.5440    -2.1460     0.6130 o          1 1RA      -0.580100
     31 H1           6.8260     0.0050     0.6190 hn         1 1RA       0.317500
     32 H2           7.0930    -2.2430     2.1700 h1         1 1RA       0.084700
     33 H3           8.9730    -1.3150    -0.1050 hc         1 1RA       0.077200
     34 H4           9.4380    -2.3290     1.3340 hc         1 1RA       0.077200
     35 H5           7.7430    -4.0780     0.6170 hc         1 1RA       0.077200
     36 H6           7.3010    -3.0390    -0.8120 hc         1 1RA       0.077200
     37 H7           0.6290     2.4180     0.0690 hn         1 1RA       0.321500
     38 H8          -2.2070    -0.7920    -0.5170 ha         1 1RA       0.185000
     39 H9          -3.0100     3.2840     2.2410 ha         1 1RA       0.139000
     40 H10         -0.7450     2.6670     1.5810 ha         1 1RA       0.130000
     41 H11         -6.9320     0.3470     0.7940 h4         1 1RA       0.181000
     42 H12         -5.8520     2.4480     2.0190 ha         1 1RA       0.161000
     43 H13          2.5700    -0.5190     0.7820 ha         1 1RA       0.174000
     44 H14         -6.5400    -2.6820    -2.2830 h1         1 1RA       0.056700
     45 H15         -6.2400    -3.6640    -0.8420 h1         1 1RA       0.056700
     46 H16         -8.8390    -2.1360    -1.4230 hc         1 1RA       0.051700
     47 H17         -8.5950    -3.8730    -1.5870 hc         1 1RA       0.051700
     48 H18         -8.5320    -3.1320     0.0100 hc         1 1RA       0.051700
     49 H19          6.0680     0.9870    -1.1790 ha         1 1RA       0.132000
     50 H20          4.7790     2.8880    -2.0030 ha         1 1RA       0.131000
     51 H21          1.8230     4.1200    -0.8480 hc         1 1RA       0.044033
     52 H22          2.7810     4.0500    -2.3140 hc         1 1RA       0.044033
     53 H23          1.2800     3.1330    -2.1980 hc         1 1RA       0.044033
@<TRIPOS>BOND
     1     1    11 ar  
     2     1    27 ar  
     3     1    28 1   
     4     2     3 1   
     5     2    29 1   
     6     2    31 1   
     7     3     4 1   
     8     3     5 1   
     9     3    32 1   
    10     4     5 1   
    11     4    33 1   
    12     4    34 1   
    13     5    35 1   
    14     5    36 1   
    15     6     7 1   
    16     6    11 1   
    17     6    37 1   
    18     7     8 2   
    19     7     9 1   
    20     9    10 ar  
    21     9    13 ar  
    22    10    15 ar  
    23    10    38 1   
    24    11    22 ar  
    25    12    13 ar  
    26    12    14 ar  
    27    12    39 1   
    28    13    40 1   
    29    14    15 ar  
    30    14    18 1   
    31    15    16 1   
    32    16    17 1   
    33    16    19 1   
    34    17    18 2   
    35    17    41 1   
    36    18    42 1   
    37    19    20 2   
    38    19    21 1   
    39    21    23 1   
    40    22    25 ar  
    41    22    43 1   
    42    23    24 1   
    43    23    44 1   
    44    23    45 1   
    45    24    46 1   
    46    24    47 1   
    47    24    48 1   
    48    25    26 ar  
    49    25    29 1   
    50    26    27 ar  
    51    26    49 1   
    52    27    50 1   
    53    28    51 1   
    54    28    52 1   
    55    28    53 1   
    56    29    30 2   
@<TRIPOS>SUBSTRUCTURE
     1 1RA         1 TEMP              0 ****  ****    0 ROOT
