@<TRIPOS>MOLECULE
1RA
   53    56     1     0     0
SMALL
No Charge or Current Charge


@<TRIPOS>ATOM
      1 C1           3.1430     2.5400    -0.1550 ca         1 1RA      -0.098300
      2 N10          6.5840    -1.2460     0.3940 ns         1 1RA      -0.485900
      3 C11          7.4110    -2.4090     0.5620 cx         1 1RA       0.047700
      4 C12          8.8790    -2.2770     0.2380 cx         1 1RA      -0.133400
      5 C13          7.9700    -3.0560    -0.6810 cx         1 1RA      -0.133400
      6 N14          0.9800     1.4290     0.0060 ns         1 1RA      -0.159000
      7 C16         -0.0190     0.4660    -0.0790 c          1 1RA       0.615700
      8 O17          0.2110    -0.7300    -0.2180 o          1 1RA      -0.562100
      9 C18         -1.4440     0.9870    -0.0040 ca         1 1RA      -0.150600
     10 C19         -2.5190     0.0620    -0.0900 ca         1 1RA      -0.038000
     11 C2           2.4040     1.3460     0.0090 ca         1 1RA      -0.032000
     12 C20         -3.0660     2.8390     0.2180 ca         1 1RA      -0.080000
     13 C21         -1.7350     2.3780     0.1510 ca         1 1RA      -0.108000
     14 C22         -4.0930     1.8970     0.1290 ca         1 1RA      -0.071800
     15 C23         -3.8360     0.5460    -0.0210 ca         1 1RA      -0.089000
     16 N24         -5.0970    -0.1400    -0.0790 n          1 1RA      -0.081600
     17 C25         -6.1100     0.8250     0.0390 cc         1 1RA      -0.088400
     18 C26         -5.5340     2.0720     0.1670 cd         1 1RA      -0.230200
     19 C27         -5.3080    -1.5370    -0.2280 c          1 1RA       0.659100
     20 O28         -4.4110    -2.3640    -0.3290 o          1 1RA      -0.485000
     21 O29         -6.6440    -1.8570    -0.2450 os         1 1RA      -0.451100
     22 C3           3.0960     0.1260     0.1900 ca         1 1RA      -0.061000
     23 C30         -7.0040    -3.2400    -0.3900 c3         1 1RA       0.184600
     24 C31         -8.5390    -3.3170    -0.3790 c3         1 1RA      -0.101100
     25 C4           4.5090     0.0750     0.1960 ca         1 1RA      -0.134600
     26 C5           5.2280     1.2790     0.0190 ca         1 1RA      -0.106000
     27 C6           4.5480     2.4940    -0.1520 ca         1 1RA      -0.101000
     28 C7           2.4410     3.8840    -0.3430 c3         1 1RA      -0.050800
     29 C8           5.2040    -1.2600     0.3940 c          1 1RA       0.610700
     30 O9           4.5820    -2.3040     0.5470 o          1 1RA      -0.580100
     31 H1           7.0230    -0.3440     0.2670 hn         1 1RA       0.317500
     32 H2           7.1250    -3.0530     1.3960 h1         1 1RA       0.084700
     33 H3           9.2450    -1.3130    -0.1090 hc         1 1RA       0.077200
     34 H4           9.5810    -2.8360     0.8510 hc         1 1RA       0.077200
     35 H5           8.0610    -4.1400    -0.6860 hc         1 1RA       0.077200
     36 H6           7.7200    -2.6150    -1.6430 hc         1 1RA       0.077200
     37 H7           0.6330     2.3740     0.0830 hn         1 1RA       0.155000
     38 H8          -2.3230    -1.0010    -0.2080 ha         1 1RA       0.167000
     39 H9          -3.2870     3.8970     0.3360 ha         1 1RA       0.121000
     40 H10         -0.9410     3.1170     0.2220 ha         1 1RA       0.112000
     41 H11         -7.1480     0.5050     0.0170 h4         1 1RA       0.231000
     42 H12         -6.0710     3.0120     0.2760 ha         1 1RA       0.211000
     43 H13          2.5460    -0.7970     0.3430 ha         1 1RA       0.156000
     44 H14         -6.6240    -3.6480    -1.3360 h1         1 1RA       0.056700
     45 H15         -6.6010    -3.8400     0.4360 h1         1 1RA       0.056700
     46 H16         -8.9610    -2.7350    -1.2060 hc         1 1RA       0.051700
     47 H17         -8.8670    -4.3570    -0.4870 hc         1 1RA       0.051700
     48 H18         -8.9380    -2.9260     0.5650 hc         1 1RA       0.051700
     49 H19          6.3140     1.2960     0.0140 ha         1 1RA       0.114000
     50 H20          5.1240     3.4080    -0.2820 ha         1 1RA       0.113000
     51 H21          1.8330     4.1380     0.5330 hc         1 1RA       0.044033
     52 H22          3.1580     4.7010    -0.4910 hc         1 1RA       0.044033
     53 H23          1.7830     3.8670    -1.2200 hc         1 1RA       0.044033
@<TRIPOS>BOND
     1     1    11 ar  
     2     1    27 ar  
     3     1    28 1   
     4     2     3 1   
     5     2    29 1   
     6     2    31 1   
     7     3     4 1   
     8     3     5 1   
     9     3    32 1   
    10     4     5 1   
    11     4    33 1   
    12     4    34 1   
    13     5    35 1   
    14     5    36 1   
    15     6     7 1   
    16     6    11 1   
    17     6    37 1   
    18     7     8 2   
    19     7     9 1   
    20     9    10 ar  
    21     9    13 ar  
    22    10    15 ar  
    23    10    38 1   
    24    11    22 ar  
    25    12    13 ar  
    26    12    14 ar  
    27    12    39 1   
    28    13    40 1   
    29    14    15 ar  
    30    14    18 1   
    31    15    16 1   
    32    16    17 1   
    33    16    19 1   
    34    17    18 2   
    35    17    41 1   
    36    18    42 1   
    37    19    20 2   
    38    19    21 1   
    39    21    23 1   
    40    22    25 ar  
    41    22    43 1   
    42    23    24 1   
    43    23    44 1   
    44    23    45 1   
    45    24    46 1   
    46    24    47 1   
    47    24    48 1   
    48    25    26 ar  
    49    25    29 1   
    50    26    27 ar  
    51    26    49 1   
    52    27    50 1   
    53    28    51 1   
    54    28    52 1   
    55    28    53 1   
    56    29    30 2   
@<TRIPOS>SUBSTRUCTURE
     1 1RA         1 TEMP              0 ****  ****    0 ROOT
