@<TRIPOS>MOLECULE
1RC
   42    44     1     0     0
SMALL
No Charge or Current Charge


@<TRIPOS>ATOM
      1 N1           0.5340     0.1390    -0.3700 n          1 1RC      -0.370800
      2 C4           3.9420    -1.1880    -1.0510 ca         1 1RC      -0.082000
      3 C5           2.6020    -0.8810    -0.7510 ca         1 1RC      -0.098300
      4 C6           1.6630    -1.8830    -0.6250 ca         1 1RC      -0.095300
      5 C7           0.2950    -1.3430    -0.3180 c5         1 1RC       0.160300
      6 C8           1.9950     0.4910    -0.5510 c5         1 1RC       0.076000
      7 C10         -1.9090     0.7480    -0.5160 ca         1 1RC      -0.292600
      8 C13         -4.6340     0.2890     0.0730 ca         1 1RC       0.226100
      9 C15         -2.9250     1.2440    -1.3580 ca         1 1RC       0.259100
     10 C17          4.6820     2.5390     1.2500 c3         1 1RC       0.104000
     11 C1           4.3150    -2.5370    -1.2090 ca         1 1RC      -0.104000
     12 C2           3.3530    -3.5590    -1.0720 ca         1 1RC      -0.100000
     13 C3           2.0150    -3.2330    -0.7800 ca         1 1RC      -0.087000
     14 C9          -0.4620     1.0070    -0.8540 c          1 1RC       0.647700
     15 C11         -2.2830     0.0600     0.6630 ca         1 1RC       0.018000
     16 C12         -3.6380    -0.1750     0.9510 ca         1 1RC      -0.047000
     17 C14         -4.2740     1.0040    -1.0730 ca         1 1RC      -0.222000
     18 O1          -2.6090     1.9700    -2.4620 oh         1 1RC      -0.545100
     19 O2          -5.9530     0.0690     0.3390 oh         1 1RC      -0.518100
     20 Cl1         -4.0700    -1.0450     2.4240 cl         1 1RC      -0.205000
     21 O3          -0.1660     2.0060    -1.5020 o          1 1RC      -0.662100
     22 C16          2.6010     1.2370     0.6780 c          1 1RC       0.605100
     23 N2           3.8050     1.8180     0.3260 ns         1 1RC      -0.502900
     24 C18          5.5010     1.5790     2.1290 c3         1 1RC      -0.111100
     25 O4           2.1290     1.3140     1.8070 o          1 1RC      -0.587100
     26 H4           4.6860    -0.4030    -1.1620 ha         1 1RC       0.119000
     27 H7          -0.0300    -1.6770     0.6750 h1         1 1RC       0.068200
     28 H7A         -0.4410    -1.6700    -1.0660 h1         1 1RC       0.068200
     29 H8           2.1550     1.1070    -1.4450 h1         1 1RC       0.088700
     30 H17          5.3650     3.1700     0.6660 h1         1 1RC       0.054200
     31 H17A         4.0750     3.1970     1.8860 h1         1 1RC       0.054200
     32 H1           5.3480    -2.7900    -1.4380 ha         1 1RC       0.117000
     33 H2           3.6450    -4.6000    -1.1960 ha         1 1RC       0.118000
     34 H3           1.2670    -4.0170    -0.6770 ha         1 1RC       0.121000
     35 H11         -1.5360    -0.2690     1.3800 ha         1 1RC       0.129000
     36 H14         -5.0440     1.3820    -1.7390 ha         1 1RC       0.152000
     37 HO1         -1.6430     2.1820    -2.3660 ho         1 1RC       0.525000
     38 HO2         -6.0010    -0.4330     1.1810 ho         1 1RC       0.484000
     39 HN2          4.1050     1.7110    -0.6360 hn         1 1RC       0.313500
     40 H18          4.8430     0.9560     2.7460 hc         1 1RC       0.042033
     41 H18A         6.1210     0.9210     1.5090 hc         1 1RC       0.042033
     42 H18B         6.1610     2.1450     2.7970 hc         1 1RC       0.042033
@<TRIPOS>BOND
     1     1     5 1   
     2     1     6 1   
     3     1    14 1   
     4     2     3 ar  
     5     2    11 ar  
     6     2    26 1   
     7     3     4 ar  
     8     3     6 1   
     9     4     5 1   
    10     4    13 ar  
    11     5    27 1   
    12     5    28 1   
    13     6    22 1   
    14     6    29 1   
    15     7     9 ar  
    16     7    14 1   
    17     7    15 ar  
    18     8    16 ar  
    19     8    17 ar  
    20     8    19 1   
    21     9    17 ar  
    22     9    18 1   
    23    10    23 1   
    24    10    24 1   
    25    10    30 1   
    26    10    31 1   
    27    11    12 ar  
    28    11    32 1   
    29    12    13 ar  
    30    12    33 1   
    31    13    34 1   
    32    14    21 2   
    33    15    16 ar  
    34    15    35 1   
    35    16    20 1   
    36    17    36 1   
    37    18    37 1   
    38    19    38 1   
    39    22    23 1   
    40    22    25 2   
    41    23    39 1   
    42    24    40 1   
    43    24    41 1   
    44    24    42 1   
@<TRIPOS>SUBSTRUCTURE
     1 1RC         1 TEMP              0 ****  ****    0 ROOT
