@<TRIPOS>MOLECULE
1RC
   42    44     1     0     0
SMALL
abcg2


@<TRIPOS>ATOM
      1 N1           0.5590    -0.1400    -0.3200 n          1 1RC      -0.370800
      2 C4           3.8750    -1.6390    -0.7740 ca         1 1RC      -0.082000
      3 C5           2.5610    -1.2650    -0.5490 ca         1 1RC      -0.098300
      4 C6           1.5730    -2.2110    -0.3430 ca         1 1RC      -0.095300
      5 C7           0.2560    -1.5510    -0.0920 c5         1 1RC       0.160300
      6 C8           1.9810     0.1180    -0.4890 c5         1 1RC       0.076000
      7 C10         -1.7500     0.7430    -0.3700 ca         1 1RC      -0.292600
      8 C13         -4.5670     0.5860    -0.2950 ca         1 1RC       0.226100
      9 C15         -2.5540     1.7000    -1.0400 ca         1 1RC       0.259100
     10 C17          4.3790     2.3420     1.4410 c3         1 1RC       0.104000
     11 C1           4.1820    -2.9940    -0.7900 ca         1 1RC      -0.104000
     12 C2           3.1890    -3.9480    -0.5850 ca         1 1RC      -0.100000
     13 C3           1.8730    -3.5630    -0.3580 ca         1 1RC      -0.087000
     14 C9          -0.2820     0.8930    -0.4690 c          1 1RC       0.647700
     15 C11         -2.4020    -0.2360     0.3810 ca         1 1RC       0.018000
     16 C12         -3.7740    -0.3180     0.4230 ca         1 1RC      -0.047000
     17 C14         -3.9390     1.5880    -1.0170 ca         1 1RC      -0.222000
     18 O1          -2.0350     2.7200    -1.7160 oh         1 1RC      -0.545100
     19 O2          -5.8990     0.5420    -0.3070 oh         1 1RC      -0.518100
     20 CL1         -4.5470    -1.5460     1.3750 cl         1 1RC      -0.205000
     21 O3           0.1890     2.0080    -0.7530 o          1 1RC      -0.662100
     22 C16          2.5470     0.8850     0.7080 c          1 1RC       0.605100
     23 N2           3.6310     1.6150     0.4320 ns         1 1RC      -0.502900
     24 C18          5.7300     2.7660     0.8980 c3         1 1RC      -0.111100
     25 O4           2.0670     0.7610     1.8220 o          1 1RC      -0.587100
     26 H4           4.6500    -0.9000    -0.9330 ha         1 1RC       0.119000
     27 H7          -0.0620    -1.7390     0.9360 h1         1 1RC       0.068200
     28 H7A         -0.5310    -1.9030    -0.7620 h1         1 1RC       0.068200
     29 H8           2.1700     0.6650    -1.4170 h1         1 1RC       0.088700
     30 H17          3.8150     3.2180     1.7710 h1         1 1RC       0.054200
     31 H17A         4.5080     1.7000     2.3130 h1         1 1RC       0.054200
     32 H1           5.2020    -3.3100    -0.9680 ha         1 1RC       0.117000
     33 H2           3.4430    -5.0000    -0.6050 ha         1 1RC       0.118000
     34 H3           1.1020    -4.3070    -0.1980 ha         1 1RC       0.121000
     35 H11         -1.8450    -0.9380     0.9790 ha         1 1RC       0.129000
     36 H14         -4.5400     2.3130    -1.5530 ha         1 1RC       0.152000
     37 HO1         -1.0690     2.7380    -1.5060 ho         1 1RC       0.525000
     38 HO2         -6.2340    -0.1920     0.2250 ho         1 1RC       0.484000
     39 HN2          3.8970     1.7460    -0.5320 hn         1 1RC       0.313500
     40 H18          6.3190     1.9040     0.5840 hc         1 1RC       0.042033
     41 H18A         5.6250     3.4390     0.0460 hc         1 1RC       0.042033
     42 H18B         6.2910     3.2930     1.6690 hc         1 1RC       0.042033
@<TRIPOS>BOND
     1     1     5 1   
     2     1     6 1   
     3     1    14 1   
     4     2     3 ar  
     5     2    11 ar  
     6     2    26 1   
     7     3     4 ar  
     8     3     6 1   
     9     4     5 1   
    10     4    13 ar  
    11     5    27 1   
    12     5    28 1   
    13     6    22 1   
    14     6    29 1   
    15     7     9 ar  
    16     7    14 1   
    17     7    15 ar  
    18     8    16 ar  
    19     8    17 ar  
    20     8    19 1   
    21     9    17 ar  
    22     9    18 1   
    23    10    23 1   
    24    10    24 1   
    25    10    30 1   
    26    10    31 1   
    27    11    12 ar  
    28    11    32 1   
    29    12    13 ar  
    30    12    33 1   
    31    13    34 1   
    32    14    21 2   
    33    15    16 ar  
    34    15    35 1   
    35    16    20 1   
    36    17    36 1   
    37    18    37 1   
    38    19    38 1   
    39    22    23 1   
    40    22    25 2   
    41    23    39 1   
    42    24    40 1   
    43    24    41 1   
    44    24    42 1   
@<TRIPOS>SUBSTRUCTURE
     1 1RC         1 TEMP              0 ****  ****    0 ROOT
