@<TRIPOS>MOLECULE
1RD
   71    72     1     0     0
SMALL
abcg2


@<TRIPOS>ATOM
      1 O23          5.6990     1.6130     2.4360 o          1 1RD      -0.541000
      2 C22          5.8480     1.1680     1.3150 c          1 1RD       0.638100
      3 O24          6.9690     1.3310     0.5940 os         1 1RD      -0.464100
      4 C25          8.0380     2.0340     1.2220 c3         1 1RD       0.263900
      5 C26          9.1800     2.0410     0.2730 cc         1 1RD      -0.253300
      6 S30          9.9090     0.5990    -0.3170 ss         1 1RD      -0.006400
      7 C29         11.0220     1.5520    -1.2120 cc         1 1RD       0.412300
      8 N28         10.8740     2.8300    -1.0850 nd         1 1RD      -0.631000
      9 C27          9.8330     3.1130    -0.2500 cd         1 1RD       0.289900
     10 N21          4.9310     0.4730     0.6270 ns         1 1RD      -0.499900
     11 C20          3.6610     0.0890     1.2060 c3         1 1RD       0.118000
     12 C19          2.7170    -0.4090     0.1250 c3         1 1RD      -0.092400
     13 C18          1.3930    -0.8780     0.7080 c3         1 1RD      -0.094400
     14 C17          0.4430    -1.3680    -0.3720 c3         1 1RD       0.106000
     15 N16         -0.7800    -1.8700     0.2220 ns         1 1RD      -0.499900
     16 C14         -1.7690    -2.4100    -0.4950 c          1 1RD       0.590100
     17 O15         -1.7550    -2.4710    -1.7180 o          1 1RD      -0.617100
     18 C13         -2.9360    -2.9810     0.3040 c3         1 1RD       0.050700
     19 C31         -2.9180    -4.5200     0.2340 c3         1 1RD      -0.075700
     20 C33         -1.6010    -5.0810     0.7650 c3         1 1RD      -0.089100
     21 C32         -4.0940    -5.1160     0.9980 c3         1 1RD      -0.089100
     22 N12         -4.1540    -2.4240    -0.2310 ns         1 1RD      -0.517900
     23 C10         -5.1190    -1.8680     0.5490 c          1 1RD       0.669100
     24 O11         -4.9740    -1.7180     1.7590 o          1 1RD      -0.643100
     25 N08         -6.2670    -1.5090    -0.1030 n          1 1RD      -0.411800
     26 C09         -6.3960    -1.5900    -1.5420 c3         1 1RD       0.082300
     27 C07         -7.2390    -0.6920     0.5910 c3         1 1RD       0.082700
     28 C06         -7.1130     0.7590     0.2360 cc         1 1RD       0.254300
     29 N05         -5.9150     1.3960     0.4230 nc         1 1RD      -0.628000
     30 C34         -8.1000     1.5360    -0.2780 cd         1 1RD      -0.261000
     31 S35         -7.5200     3.1300    -0.5300 ss         1 1RD      -0.055400
     32 C04         -5.9650     2.6380     0.0690 cd         1 1RD       0.451700
     33 C02         -4.8140     3.5940     0.1340 c3         1 1RD      -0.102000
     34 C03         -4.3200     3.9500    -1.2700 c3         1 1RD      -0.088100
     35 C01         -5.1610     4.8470     0.9350 c3         1 1RD      -0.088100
     36 H1           7.7550     3.0650     1.4470 h1         1 1RD       0.064700
     37 H2           8.3140     1.5480     2.1600 h1         1 1RD       0.064700
     38 H3          11.7750     1.0870    -1.8330 h5         1 1RD       0.053100
     39 H4           9.5730     4.1420    -0.0400 h4         1 1RD       0.045100
     40 H5           5.1990     0.0590    -0.2520 hn         1 1RD       0.327500
     41 H6           3.7990    -0.6900     1.9640 h1         1 1RD       0.053200
     42 H7           3.2210     0.9510     1.7110 h1         1 1RD       0.053200
     43 H8           2.5450     0.3880    -0.6040 hc         1 1RD       0.050200
     44 H9           3.1870    -1.2360    -0.4170 hc         1 1RD       0.050200
     45 H10          1.5750    -1.6840     1.4260 hc         1 1RD       0.049200
     46 H11          0.9210    -0.0620     1.2640 hc         1 1RD       0.049200
     47 H12          0.2160    -0.5540    -1.0660 h1         1 1RD       0.051700
     48 H13          0.9200    -2.1610    -0.9550 h1         1 1RD       0.051700
     49 H14         -0.8680    -1.8410     1.2240 hn         1 1RD       0.320500
     50 H15         -2.8620    -2.6770     1.3500 h1         1 1RD       0.089700
     51 H16         -3.0140    -4.8030    -0.8200 hc         1 1RD       0.060700
     52 H17         -1.4380    -4.7840     1.8030 hc         1 1RD       0.037367
     53 H18         -1.6150    -6.1710     0.7330 hc         1 1RD       0.037367
     54 H19         -0.7370    -4.7530     0.1850 hc         1 1RD       0.037367
     55 H20         -5.0530    -4.7710     0.6100 hc         1 1RD       0.037367
     56 H21         -4.0820    -6.2040     0.9180 hc         1 1RD       0.037367
     57 H22         -4.0470    -4.8600     2.0580 hc         1 1RD       0.037367
     58 H23         -4.2940    -2.5430    -1.2200 hn         1 1RD       0.327500
     59 H24         -5.7210    -0.9110    -2.0720 h1         1 1RD       0.038700
     60 H25         -6.2260    -2.6050    -1.9050 h1         1 1RD       0.038700
     61 H26         -7.4130    -1.3250    -1.8210 h1         1 1RD       0.038700
     62 H27         -8.2440    -1.0420     0.3470 h1         1 1RD       0.074200
     63 H28         -7.1040    -0.8260     1.6630 h1         1 1RD       0.074200
     64 H29         -9.1140     1.2560    -0.5170 h4         1 1RD       0.159000
     65 H30         -4.0180     3.0540     0.6540 hc         1 1RD       0.080700
     66 H31         -5.0830     4.4900    -1.8330 hc         1 1RD       0.041033
     67 H32         -3.4380     4.5880    -1.2070 hc         1 1RD       0.041033
     68 H33         -4.0490     3.0580    -1.8350 hc         1 1RD       0.041033
     69 H34         -4.2830     5.4880     1.0250 hc         1 1RD       0.041033
     70 H35         -5.9440     5.4310     0.4460 hc         1 1RD       0.041033
     71 H36         -5.5020     4.5990     1.9400 hc         1 1RD       0.041033
@<TRIPOS>BOND
     1     1     2 2   
     2     2     3 1   
     3     2    10 1   
     4     3     4 1   
     5     4     5 1   
     6     4    36 1   
     7     4    37 1   
     8     5     6 1   
     9     5     9 2   
    10     6     7 1   
    11     7     8 2   
    12     7    38 1   
    13     8     9 1   
    14     9    39 1   
    15    10    11 1   
    16    10    40 1   
    17    11    12 1   
    18    11    41 1   
    19    11    42 1   
    20    12    13 1   
    21    12    43 1   
    22    12    44 1   
    23    13    14 1   
    24    13    45 1   
    25    13    46 1   
    26    14    15 1   
    27    14    47 1   
    28    14    48 1   
    29    15    16 1   
    30    15    49 1   
    31    16    17 2   
    32    16    18 1   
    33    18    19 1   
    34    18    22 1   
    35    18    50 1   
    36    19    20 1   
    37    19    21 1   
    38    19    51 1   
    39    20    52 1   
    40    20    53 1   
    41    20    54 1   
    42    21    55 1   
    43    21    56 1   
    44    21    57 1   
    45    22    23 1   
    46    22    58 1   
    47    23    24 2   
    48    23    25 1   
    49    25    26 1   
    50    25    27 1   
    51    26    59 1   
    52    26    60 1   
    53    26    61 1   
    54    27    28 1   
    55    27    62 1   
    56    27    63 1   
    57    28    29 1   
    58    28    30 2   
    59    29    32 2   
    60    30    31 1   
    61    30    64 1   
    62    31    32 1   
    63    32    33 1   
    64    33    34 1   
    65    33    35 1   
    66    33    65 1   
    67    34    66 1   
    68    34    67 1   
    69    34    68 1   
    70    35    69 1   
    71    35    70 1   
    72    35    71 1   
@<TRIPOS>SUBSTRUCTURE
     1 1RD         1 TEMP              0 ****  ****    0 ROOT
