@<TRIPOS>MOLECULE
1RD
   71    72     1     0     0
SMALL
No Charge or Current Charge


@<TRIPOS>ATOM
      1 O23          6.2970     0.4040     1.6130 o          1 1RD      -0.541000
      2 C22          6.6440    -0.2110     0.6170 c          1 1RD       0.638100
      3 O24          7.8020    -0.0260    -0.0700 os         1 1RD      -0.464100
      4 C25          8.6890     1.0020     0.3970 c3         1 1RD       0.263900
      5 C26          9.8990     0.9770    -0.4900 cc         1 1RD      -0.253300
      6 S30         11.4950     0.7030     0.1520 ss         1 1RD      -0.006400
      7 C29         12.0990     0.8440    -1.4780 cc         1 1RD       0.412300
      8 N28         11.1950     1.0750    -2.4250 nd         1 1RD      -0.631000
      9 C27          9.9310     1.1500    -1.8550 cd         1 1RD       0.289900
     10 N21          5.9360    -1.2170     0.0240 ns         1 1RD      -0.499900
     11 C20          4.6330    -1.7060     0.4760 c3         1 1RD       0.118000
     12 C19          3.4950    -0.7050     0.1870 c3         1 1RD      -0.092400
     13 C18          2.1070    -1.2460     0.5890 c3         1 1RD      -0.094400
     14 C17          0.9770    -0.2190     0.3920 c3         1 1RD       0.106000
     15 N16         -0.3150    -0.7730     0.7940 ns         1 1RD      -0.499900
     16 C14         -1.1730    -1.4610    -0.0400 c          1 1RD       0.590100
     17 O15         -0.9470    -1.5910    -1.2380 o          1 1RD      -0.617100
     18 C13         -2.4440    -2.0360     0.6520 c3         1 1RD       0.050700
     19 C31         -2.2700    -3.5330     1.0690 c3         1 1RD      -0.075700
     20 C33         -1.0330    -3.7620     1.9730 c3         1 1RD      -0.089100
     21 C32         -3.5420    -4.1160     1.7370 c3         1 1RD      -0.089100
     22 N12         -3.6030    -1.8720    -0.2550 ns         1 1RD      -0.517900
     23 C10         -4.8210    -1.3470     0.1060 c          1 1RD       0.669100
     24 O11         -5.0460    -0.9590     1.2410 o          1 1RD      -0.643100
     25 N08         -5.7830    -1.2740    -0.9190 n          1 1RD      -0.411800
     26 C09         -5.5130    -1.7650    -2.2910 c3         1 1RD       0.082300
     27 C07         -7.1060    -0.6480    -0.6530 c3         1 1RD       0.082700
     28 C06         -7.0380     0.8640    -0.5990 cc         1 1RD       0.254300
     29 N05         -7.8540     1.5370     0.2780 nc         1 1RD      -0.628000
     30 C34         -6.2200     1.6550    -1.3700 cd         1 1RD      -0.261000
     31 S35         -6.4420     3.3540    -0.9980 ss         1 1RD      -0.055400
     32 C04         -7.6450     2.8430     0.1830 cd         1 1RD       0.451700
     33 C02         -8.4030     3.8310     1.0440 c3         1 1RD      -0.102000
     34 C03         -7.4560     4.6330     1.9680 c3         1 1RD      -0.088100
     35 C01         -9.2980     4.7630     0.1940 c3         1 1RD      -0.088100
     36 H1           8.2120     1.9900     0.3400 h1         1 1RD       0.064700
     37 H2           8.9860     0.8230     1.4400 h1         1 1RD       0.064700
     38 H3          13.1620     0.7420    -1.6570 h5         1 1RD       0.053100
     39 H4           9.0700     1.3320    -2.4860 h4         1 1RD       0.045100
     40 H5           6.3620    -1.6360    -0.7940 hn         1 1RD       0.327500
     41 H6           4.4240    -2.6570    -0.0320 h1         1 1RD       0.053200
     42 H7           4.6860    -1.9070     1.5550 h1         1 1RD       0.053200
     43 H8           3.6880     0.2300     0.7280 hc         1 1RD       0.050200
     44 H9           3.4910    -0.4600    -0.8830 hc         1 1RD       0.050200
     45 H10          1.8840    -2.1440     0.0000 hc         1 1RD       0.049200
     46 H11          2.1270    -1.5510     1.6430 hc         1 1RD       0.049200
     47 H12          1.1780     0.6740     0.9990 h1         1 1RD       0.051700
     48 H13          0.9340     0.0930    -0.6610 h1         1 1RD       0.051700
     49 H14         -0.5800    -0.7040     1.7700 hn         1 1RD       0.320500
     50 H15         -2.6110    -1.4390     1.5570 h1         1 1RD       0.089700
     51 H16         -2.1010    -4.1100     0.1510 hc         1 1RD       0.060700
     52 H17         -1.0980    -3.1590     2.8880 hc         1 1RD       0.037367
     53 H18         -0.9550    -4.8160     2.2650 hc         1 1RD       0.037367
     54 H19         -0.1040    -3.5010     1.4520 hc         1 1RD       0.037367
     55 H20         -4.3990    -4.0920     1.0540 hc         1 1RD       0.037367
     56 H21         -3.3850    -5.1630     2.0250 hc         1 1RD       0.037367
     57 H22         -3.8040    -3.5500     2.6390 hc         1 1RD       0.037367
     58 H23         -3.4910    -2.1330    -1.2250 hn         1 1RD       0.327500
     59 H24         -4.6580    -1.2250    -2.7180 h1         1 1RD       0.038700
     60 H25         -5.2900    -2.8390    -2.2620 h1         1 1RD       0.038700
     61 H26         -6.3840    -1.6050    -2.9390 h1         1 1RD       0.038700
     62 H27         -7.8230    -0.9390    -1.4310 h1         1 1RD       0.074200
     63 H28         -7.4960    -1.0260     0.3010 h1         1 1RD       0.074200
     64 H29         -5.5070     1.3400    -2.1210 h4         1 1RD       0.159000
     65 H30         -9.0740     3.2620     1.7000 hc         1 1RD       0.080700
     66 H31         -6.7740     5.2630     1.3830 hc         1 1RD       0.041033
     67 H32         -8.0280     5.2830     2.6410 hc         1 1RD       0.041033
     68 H33         -6.8530     3.9550     2.5840 hc         1 1RD       0.041033
     69 H34         -9.8970     5.4180     0.8380 hc         1 1RD       0.041033
     70 H35         -8.6930     5.3950    -0.4690 hc         1 1RD       0.041033
     71 H36         -9.9860     4.1770    -0.4270 hc         1 1RD       0.041033
@<TRIPOS>BOND
     1     1     2 2   
     2     2     3 1   
     3     2    10 1   
     4     3     4 1   
     5     4     5 1   
     6     4    36 1   
     7     4    37 1   
     8     5     6 1   
     9     5     9 2   
    10     6     7 1   
    11     7     8 2   
    12     7    38 1   
    13     8     9 1   
    14     9    39 1   
    15    10    11 1   
    16    10    40 1   
    17    11    12 1   
    18    11    41 1   
    19    11    42 1   
    20    12    13 1   
    21    12    43 1   
    22    12    44 1   
    23    13    14 1   
    24    13    45 1   
    25    13    46 1   
    26    14    15 1   
    27    14    47 1   
    28    14    48 1   
    29    15    16 1   
    30    15    49 1   
    31    16    17 2   
    32    16    18 1   
    33    18    19 1   
    34    18    22 1   
    35    18    50 1   
    36    19    20 1   
    37    19    21 1   
    38    19    51 1   
    39    20    52 1   
    40    20    53 1   
    41    20    54 1   
    42    21    55 1   
    43    21    56 1   
    44    21    57 1   
    45    22    23 1   
    46    22    58 1   
    47    23    24 2   
    48    23    25 1   
    49    25    26 1   
    50    25    27 1   
    51    26    59 1   
    52    26    60 1   
    53    26    61 1   
    54    27    28 1   
    55    27    62 1   
    56    27    63 1   
    57    28    29 1   
    58    28    30 2   
    59    29    32 2   
    60    30    31 1   
    61    30    64 1   
    62    31    32 1   
    63    32    33 1   
    64    33    34 1   
    65    33    35 1   
    66    33    65 1   
    67    34    66 1   
    68    34    67 1   
    69    34    68 1   
    70    35    69 1   
    71    35    70 1   
    72    35    71 1   
@<TRIPOS>SUBSTRUCTURE
     1 1RD         1 TEMP              0 ****  ****    0 ROOT
