@<TRIPOS>MOLECULE
1RE
   62    64     1     0     0
SMALL
bcc


@<TRIPOS>ATOM
      1 CAC          7.9720    -4.3020    -0.0130 c3         1 1RE      -0.089600
      2 CAY          6.5720    -3.7150    -0.1600 c3         1 1RE      -0.058700
      3 CAB          5.6060    -4.3990     0.8040 c3         1 1RE      -0.089600
      4 CAF          6.6240    -2.1990     0.0420 c3         1 1RE      -0.081400
      5 CAJ          5.2830    -1.5250    -0.1520 c3         1 1RE       0.142400
      6 OAW          5.4900    -0.1160    -0.0590 os         1 1RE      -0.313900
      7 CBA          2.1040     1.2600    -0.3940 ca         1 1RE       0.238600
      8 CAH          2.3990     2.6240    -0.2860 ca         1 1RE      -0.196000
      9 CAG          3.7120     3.0120    -0.1090 ca         1 1RE      -0.028000
     10 CAZ          4.7440     2.0820    -0.0340 ca         1 1RE      -0.095000
     11 CBE          4.4500     0.7110    -0.1440 ca         1 1RE       0.220100
     12 CAI          3.1360     0.3150    -0.3260 ca         1 1RE      -0.295000
     13 CAE          6.0880     2.4990     0.1530 cg         1 1RE       0.258800
     14 NAD          7.1740     2.8570     0.3050 n1         1 1RE      -0.378800
     15 NAR         -1.3960     0.4760    -0.8070 nb         1 1RE      -0.842000
     16 CBB         -0.3860     1.3300    -0.6290 ca         1 1RE       0.976900
     17 NAQ         -0.5050     2.6430    -0.5070 nb         1 1RE      -0.830000
     18 CBC         -1.7530     3.0830    -0.5710 ca         1 1RE       0.963300
     19 NAS         -2.8330     2.3420    -0.7410 nb         1 1RE      -0.931000
     20 CBD         -2.5850     1.0440    -0.8540 ca         1 1RE       0.967300
     21 OAU         -1.8750     4.3840    -0.4490 os         1 1RE      -0.404100
     22 CAA         -3.1840     4.9550    -0.4950 c3         1 1RE       0.142700
     23 OAX         -3.5840     0.2120    -1.0300 os         1 1RE      -0.392100
     24 CAM         -4.9200     0.7250    -1.0860 c3         1 1RE       0.157400
     25 CAP         -5.8500    -0.4400    -1.3310 c3         1 1RE       0.164800
     26 NBF         -5.8020    -1.4580    -0.3040 n3         1 1RE      -0.705600
     27 CAO         -6.3350    -1.0080     0.9690 c6         1 1RE       0.126800
     28 CAL         -6.2330    -2.1170     1.9990 c6         1 1RE       0.130400
     29 OAV         -6.8950    -3.2880     1.5760 os         1 1RE      -0.402600
     30 CAK         -6.3790    -3.7340     0.3420 c6         1 1RE       0.130400
     31 CAN         -6.4880    -2.6650    -0.7280 c6         1 1RE       0.126800
     32 H1           7.9740    -5.3740    -0.2160 hc         1 1RE       0.035033
     33 H2           8.6790    -3.8330    -0.7000 hc         1 1RE       0.035033
     34 H3           8.3490    -4.1570     1.0020 hc         1 1RE       0.035033
     35 H4           6.2290    -3.9080    -1.1830 hc         1 1RE       0.045700
     36 H5           4.5670    -4.1140     0.6290 hc         1 1RE       0.035033
     37 H6           5.6620    -5.4840     0.7040 hc         1 1RE       0.035033
     38 H7           5.8490    -4.1490     1.8400 hc         1 1RE       0.035033
     39 H8           6.9990    -1.9810     1.0470 hc         1 1RE       0.059700
     40 H9           7.3400    -1.7710    -0.6650 hc         1 1RE       0.059700
     41 H10          4.8600    -1.7740    -1.1320 h1         1 1RE       0.038200
     42 H11          4.5680    -1.8410     0.6140 h1         1 1RE       0.038200
     43 H12          1.6220     3.3660    -0.3370 ha         1 1RE       0.182000
     44 H13          3.9430     4.0660    -0.0250 ha         1 1RE       0.147000
     45 H14          2.8880    -0.7350    -0.4170 ha         1 1RE       0.139000
     46 H15          0.7860    -0.2650    -0.6630 hn         1 1RE       0.462800
     47 H16         -3.6700     4.7570    -1.4500 h1         1 1RE       0.053367
     48 H17         -3.8110     4.5750     0.3100 h1         1 1RE       0.053367
     49 H18         -3.0400     6.0240    -0.3730 h1         1 1RE       0.053367
     50 H19         -5.1540     1.2500    -0.1580 h1         1 1RE       0.053200
     51 H20         -5.0170     1.4430    -1.9020 h1         1 1RE       0.053200
     52 H21         -6.8610    -0.0190    -1.4580 h1         1 1RE       0.046700
     53 H22         -5.5880    -0.9030    -2.2870 h1         1 1RE       0.046700
     54 H24         -5.7630    -0.1540     1.3380 h1         1 1RE       0.039950
     55 H25         -7.3850    -0.6790     0.8780 h1         1 1RE       0.039950
     56 H26         -5.1730    -2.3270     2.1990 h1         1 1RE       0.053200
     57 H27         -6.6940    -1.7990     2.9350 h1         1 1RE       0.053200
     58 H28         -5.3270    -4.0340     0.4510 h1         1 1RE       0.053200
     59 H29         -6.9500    -4.6160     0.0470 h1         1 1RE       0.053200
     60 H30         -7.5520    -2.4770    -0.9510 h1         1 1RE       0.039950
     61 H31         -6.0290    -3.0390    -1.6470 h1         1 1RE       0.039950
     62 NAT          0.8350     0.7400    -0.5750 nu         1 1RE      -0.724300
@<TRIPOS>BOND
     1     1     2 1   
     2     1    32 1   
     3     1    33 1   
     4     1    34 1   
     5     2     3 1   
     6     2     4 1   
     7     2    35 1   
     8     3    36 1   
     9     3    37 1   
    10     3    38 1   
    11     4     5 1   
    12     4    39 1   
    13     4    40 1   
    14     5     6 1   
    15     5    41 1   
    16     5    42 1   
    17     6    11 1   
    18     7     8 ar  
    19     7    12 ar  
    20     7    62 1   
    21     8     9 ar  
    22     8    43 1   
    23     9    10 ar  
    24     9    44 1   
    25    10    11 ar  
    26    10    13 1   
    27    11    12 ar  
    28    12    45 1   
    29    13    14 3   
    30    15    16 ar  
    31    15    20 ar  
    32    16    17 ar  
    33    16    62 1   
    34    17    18 ar  
    35    18    19 ar  
    36    18    21 1   
    37    19    20 ar  
    38    20    23 1   
    39    21    22 1   
    40    22    47 1   
    41    22    48 1   
    42    22    49 1   
    43    23    24 1   
    44    24    25 1   
    45    24    50 1   
    46    24    51 1   
    47    25    26 1   
    48    25    52 1   
    49    25    53 1   
    50    26    27 1   
    51    26    31 1   
    52    27    28 1   
    53    27    54 1   
    54    27    55 1   
    55    28    29 1   
    56    28    56 1   
    57    28    57 1   
    58    29    30 1   
    59    30    31 1   
    60    30    58 1   
    61    30    59 1   
    62    31    60 1   
    63    31    61 1   
    64    46    62 1   
@<TRIPOS>SUBSTRUCTURE
     1 1RE         1 TEMP              0 ****  ****    0 ROOT
