@<TRIPOS>MOLECULE
1RE
   62    64     1     0     0
SMALL
No Charge or Current Charge


@<TRIPOS>ATOM
      1 CAC          7.9990    -4.3780     0.4700 c3         1 1RE      -0.089600
      2 CAY          6.5840    -3.7640     0.3700 c3         1 1RE      -0.058700
      3 CAB          5.7160    -4.1870     1.5790 c3         1 1RE      -0.089600
      4 CAF          6.6590    -2.2220     0.1930 c3         1 1RE      -0.081400
      5 CAJ          5.3000    -1.5420    -0.0730 c3         1 1RE       0.165600
      6 OAW          5.5560    -0.1500    -0.3200 os         1 1RE      -0.337100
      7 CBA          2.1920     1.3000    -0.9290 ca         1 1RE       0.377000
      8 CAH          2.5410     2.6380    -1.1700 ca         1 1RE      -0.178000
      9 CAG          3.8850     3.0420    -1.1140 ca         1 1RE      -0.010000
     10 CAZ          4.8910     2.1040    -0.8240 ca         1 1RE      -0.095000
     11 CBE          4.5470     0.7550    -0.5970 ca         1 1RE       0.220100
     12 CAI          3.1930     0.3610    -0.6570 ca         1 1RE      -0.277000
     13 CAE          6.2600     2.5320    -0.7700 cg         1 1RE       0.348000
     14 NAD          7.3690     2.8970    -0.7300 n1         1 1RE      -0.468000
     15 NAR         -1.4050     0.6340    -1.0650 nb         1 1RE      -0.316000
     16 CBB         -0.3650     1.4290    -0.8000 ca         1 1RE       0.450900
     17 NAQ         -0.4380     2.6820    -0.3360 nb         1 1RE      -0.304000
     18 CBC         -1.6810     3.1540    -0.1550 ca         1 1RE       0.437300
     19 NAS         -2.7980     2.4410    -0.4040 nb         1 1RE      -0.405000
     20 CBD         -2.6140     1.1830    -0.8560 ca         1 1RE       0.441300
     21 OAU         -1.7900     4.4440     0.3130 os         1 1RE      -0.427300
     22 CAA         -3.0770     5.0530     0.5460 c3         1 1RE       0.165900
     23 OAX         -3.7060     0.3930    -1.1260 os         1 1RE      -0.415300
     24 CAM         -5.0530     0.8800    -0.9280 c3         1 1RE       0.180600
     25 CAP         -6.0620    -0.2440    -1.2950 c3         1 1RE       0.164800
     26 NBF         -5.9710    -1.5060    -0.5020 n3         1 1RE      -0.705600
     27 CAO         -6.1960    -1.3210     0.9680 c6         1 1RE       0.126800
     28 CAL         -6.0870    -2.6680     1.7440 c6         1 1RE       0.153600
     29 OAV         -6.9910    -3.6500     1.1810 os         1 1RE      -0.449000
     30 CAK         -6.7350    -3.9020    -0.2210 c6         1 1RE       0.153600
     31 CAN         -6.8620    -2.5820    -1.0390 c6         1 1RE       0.126800
     32 H1           7.9440    -5.4710     0.5390 hc         1 1RE       0.035033
     33 H2           8.5960    -4.1270    -0.4160 hc         1 1RE       0.035033
     34 H3           8.5260    -4.0040     1.3560 hc         1 1RE       0.035033
     35 H4           6.1160    -4.1800    -0.5320 hc         1 1RE       0.045700
     36 H5           4.6750    -3.8690     1.4520 hc         1 1RE       0.035033
     37 H6           5.7150    -5.2780     1.6910 hc         1 1RE       0.035033
     38 H7           6.1010    -3.7490     2.5090 hc         1 1RE       0.035033
     39 H8           7.1130    -1.7740     1.0850 hc         1 1RE       0.059700
     40 H9           7.3260    -1.9950    -0.6490 hc         1 1RE       0.059700
     41 H10          4.8220    -2.0080    -0.9440 h1         1 1RE       0.038200
     42 H11          4.6450    -1.6620     0.7990 h1         1 1RE       0.038200
     43 H12          1.7820     3.3700    -1.4190 ha         1 1RE       0.164000
     44 H13          4.1410     4.0840    -1.3020 ha         1 1RE       0.129000
     45 H14          2.9060    -0.6700    -0.4850 ha         1 1RE       0.121000
     46 H15          0.8030    -0.1590    -1.1230 hn         1 1RE       0.518000
     47 H16         -3.6640     5.0950    -0.3810 h1         1 1RE       0.053367
     48 H17         -3.6480     4.4880     1.2950 h1         1 1RE       0.053367
     49 H18         -2.9540     6.0780     0.9160 h1         1 1RE       0.053367
     50 H19         -5.2090     1.1910     0.1120 h1         1 1RE       0.053200
     51 H20         -5.2440     1.7480    -1.5720 h1         1 1RE       0.053200
     52 H21         -7.0740     0.1740    -1.2010 h1         1 1RE       0.046700
     53 H22         -5.9190    -0.4730    -2.3600 h1         1 1RE       0.046700
     54 H24         -5.4580    -0.6240     1.3890 h1         1 1RE       0.039950
     55 H25         -7.1910    -0.8890     1.1500 h1         1 1RE       0.039950
     56 H26         -5.0570    -3.0500     1.6900 h1         1 1RE       0.053200
     57 H27         -6.3380    -2.5120     2.8020 h1         1 1RE       0.053200
     58 H28         -5.7240    -4.3200    -0.3370 h1         1 1RE       0.053200
     59 H29         -7.4560    -4.6430    -0.5920 h1         1 1RE       0.053200
     60 H30         -7.9120    -2.2550    -1.0160 h1         1 1RE       0.039950
     61 H31         -6.6130    -2.7940    -2.0890 h1         1 1RE       0.039950
     62 NAT          0.8760     0.8470    -0.9870 nu         1 1RE      -0.917900
@<TRIPOS>BOND
     1     1     2 1   
     2     1    32 1   
     3     1    33 1   
     4     1    34 1   
     5     2     3 1   
     6     2     4 1   
     7     2    35 1   
     8     3    36 1   
     9     3    37 1   
    10     3    38 1   
    11     4     5 1   
    12     4    39 1   
    13     4    40 1   
    14     5     6 1   
    15     5    41 1   
    16     5    42 1   
    17     6    11 1   
    18     7     8 ar  
    19     7    12 ar  
    20     7    62 1   
    21     8     9 ar  
    22     8    43 1   
    23     9    10 ar  
    24     9    44 1   
    25    10    11 ar  
    26    10    13 1   
    27    11    12 ar  
    28    12    45 1   
    29    13    14 3   
    30    15    16 ar  
    31    15    20 ar  
    32    16    17 ar  
    33    16    62 1   
    34    17    18 ar  
    35    18    19 ar  
    36    18    21 1   
    37    19    20 ar  
    38    20    23 1   
    39    21    22 1   
    40    22    47 1   
    41    22    48 1   
    42    22    49 1   
    43    23    24 1   
    44    24    25 1   
    45    24    50 1   
    46    24    51 1   
    47    25    26 1   
    48    25    52 1   
    49    25    53 1   
    50    26    27 1   
    51    26    31 1   
    52    27    28 1   
    53    27    54 1   
    54    27    55 1   
    55    28    29 1   
    56    28    56 1   
    57    28    57 1   
    58    29    30 1   
    59    30    31 1   
    60    30    58 1   
    61    30    59 1   
    62    31    60 1   
    63    31    61 1   
    64    46    62 1   
@<TRIPOS>SUBSTRUCTURE
     1 1RE         1 TEMP              0 ****  ****    0 ROOT
