@<TRIPOS>MOLECULE
1RG
   58    60     1     0     0
SMALL
No Charge or Current Charge


@<TRIPOS>ATOM
      1 C           -7.6670    -5.5340    -0.8030 c          1 1RG       0.600100
      2 N           -7.4210    -6.7600     1.4890 n7         1 1RG      -0.820400
      3 O           -8.4150    -4.5830    -0.5910 o          1 1RG      -0.564100
      4 CA          -7.6250    -6.8960    -0.0020 c5         1 1RG       0.082500
      5 CB          -8.9940    -7.6340    -0.1880 c5         1 1RG      -0.052400
      6 CD          -8.7220    -7.1250     2.0950 c5         1 1RG       0.164800
      7 CG          -9.1900    -8.2950     1.1970 c5         1 1RG       0.013300
      8 CAA         -9.9570   -11.4900     7.3660 c          1 1RG       0.606900
      9 CAB         -9.4080   -11.4930     5.9370 c3         1 1RG      -0.179700
     10 OAC        -10.6680   -12.3820     7.8220 o          1 1RG      -0.531100
     11 CAD         -9.9890   -10.2880     5.1510 c5         1 1RG       0.161500
     12 CAE         -7.8550   -11.5490     5.9470 c3         1 1RG       0.177300
     13 CAF         -7.1530   -10.3290     6.5870 c3         1 1RG      -0.124100
     14 OAG         -7.4420   -12.7220     6.6470 oh         1 1RG      -0.671000
     15 CAH         -9.7000   -10.1890     3.6040 c5         1 1RG      -0.039500
     16 CAI        -10.8920    -9.3980     3.0740 c2         1 1RG      -0.150600
     17 NAJ        -11.4700   -10.2430     5.1630 nu         1 1RG      -0.737200
     18 SAK        -11.0120    -8.5990     1.4550 ss         1 1RG      -0.164600
     19 CAL        -11.8820    -9.5810     3.9770 ce         1 1RG       0.053800
     20 CAM        -13.3590    -9.1260     3.8700 c          1 1RG       0.709200
     21 OAT        -13.7500    -8.5110     2.8860 o          1 1RG      -0.700500
     22 OAU        -14.1210    -9.4100     4.7910 o          1 1RG      -0.700500
     23 NAX         -6.6950    -5.5870    -1.7990 ns         1 1RG      -0.149000
     24 CAY         -6.3020    -4.6630    -2.8080 ca         1 1RG      -0.060000
     25 CAZ         -5.2280    -5.0290    -3.6410 ca         1 1RG      -0.138000
     26 CBA         -4.7680    -4.1750    -4.6740 ca         1 1RG      -0.112600
     27 CBB         -5.4180    -2.9320    -4.8540 ca         1 1RG      -0.111000
     28 CBC         -6.4910    -2.5600    -4.0290 ca         1 1RG      -0.127000
     29 CBD         -6.9340    -3.4180    -3.0100 ca         1 1RG      -0.152000
     30 CBE         -3.6020    -4.5820    -5.5690 c          1 1RG       0.707600
     31 OBF         -3.2390    -3.8120    -6.4480 o          1 1RG      -0.728500
     32 OBG         -3.0660    -5.6660    -5.3810 o          1 1RG      -0.728500
     33 HN          -6.7300    -7.4620     1.7840 hn         1 1RG       0.408000
     34 HA          -6.8110    -7.5180    -0.4000 h1         1 1RG       0.011700
     35 HB          -9.8070    -6.9300    -0.4070 hc         1 1RG       0.063200
     36 HBA         -8.9720    -8.3650    -1.0040 hc         1 1RG       0.063200
     37 HD          -8.6130    -7.4070     3.1510 h1         1 1RG       0.031700
     38 HDA         -9.4210    -6.2780     2.0410 h1         1 1RG       0.031700
     39 HG          -8.5850    -9.2040     1.3030 h1         1 1RG       0.049700
     40 HAA         -9.6900   -10.6060     7.9860 h4         1 1RG      -0.015800
     41 HAB         -9.7680   -12.4190     5.4740 hc         1 1RG       0.082700
     42 HAD         -9.6160    -9.3730     5.6320 h1         1 1RG       0.057700
     43 HAE         -7.5050   -11.6100     4.9090 h1         1 1RG       0.040700
     44 HAF         -6.0640   -10.4500     6.5420 hc         1 1RG       0.040700
     45 HAFA        -7.3990    -9.4060     6.0500 hc         1 1RG       0.040700
     46 HAFB        -7.4330   -10.2050     7.6390 hc         1 1RG       0.040700
     47 HOAG        -6.4670   -12.7910     6.5420 ho         1 1RG       0.431000
     48 HAH         -8.7480    -9.6700     3.4590 hc         1 1RG       0.037700
     49 HNAJ       -12.0850   -10.9460     5.5780 hn         1 1RG       0.440000
     50 HNAX        -6.1650    -6.4490    -1.8110 hn         1 1RG       0.140000
     51 HAZ         -4.7430    -5.9900    -3.4850 ha         1 1RG       0.122000
     52 HBB         -5.0930    -2.2500    -5.6360 ha         1 1RG       0.123000
     53 HBC         -6.9820    -1.6020    -4.1800 ha         1 1RG       0.087000
     54 HBD         -7.7690    -3.0970    -2.3950 ha         1 1RG       0.129000
     55 CAS         -9.5910   -11.5400     2.8450 c3         1 1RG      -0.084100
     56 HAS         -9.4940   -11.3770     1.7660 hc         1 1RG       0.030367
     57 HASA        -8.7200   -12.1230     3.1600 hc         1 1RG       0.030367
     58 HASB       -10.4830   -12.1580     3.0040 hc         1 1RG       0.030367
@<TRIPOS>BOND
     1     1     3 2   
     2     1     4 1   
     3     1    23 1   
     4     2     4 1   
     5     2     6 1   
     6     2    33 1   
     7     4     5 1   
     8     4    34 1   
     9     5     7 1   
    10     5    35 1   
    11     5    36 1   
    12     6     7 1   
    13     6    37 1   
    14     6    38 1   
    15     7    18 1   
    16     7    39 1   
    17     8     9 1   
    18     8    10 2   
    19     8    40 1   
    20     9    11 1   
    21     9    12 1   
    22     9    41 1   
    23    11    15 1   
    24    11    17 1   
    25    11    42 1   
    26    12    13 1   
    27    12    14 1   
    28    12    43 1   
    29    13    44 1   
    30    13    45 1   
    31    13    46 1   
    32    14    47 1   
    33    15    16 1   
    34    15    48 1   
    35    15    55 1   
    36    16    18 1   
    37    16    19 2   
    38    17    19 1   
    39    17    49 1   
    40    19    20 1   
    41    20    21 1   
    42    20    22 1   
    43    23    24 1   
    44    23    50 1   
    45    24    25 ar  
    46    24    29 ar  
    47    25    26 ar  
    48    25    51 1   
    49    26    27 ar  
    50    26    30 1   
    51    27    28 ar  
    52    27    52 1   
    53    28    29 ar  
    54    28    53 1   
    55    29    54 1   
    56    30    31 1   
    57    30    32 1   
    58    55    56 1   
    59    55    57 1   
    60    55    58 1   
@<TRIPOS>SUBSTRUCTURE
     1 1RG         1 TEMP              0 ****  ****    0 ROOT
