@<TRIPOS>MOLECULE
1RG
   58    60     1     0     0
SMALL
abcg2


@<TRIPOS>ATOM
      1 C           -7.3470    -5.2940    -0.5290 c          1 1RG       0.600100
      2 N           -7.6190    -6.1590     1.7880 n7         1 1RG      -0.820400
      3 O           -8.2320    -4.4570    -0.4030 o          1 1RG      -0.564100
      4 CA          -7.1630    -6.4590     0.4400 c5         1 1RG       0.082500
      5 CB          -8.0430    -7.6650     0.0380 c5         1 1RG      -0.052400
      6 CD          -7.7400    -7.4590     2.4470 c5         1 1RG       0.164800
      7 CG          -8.4120    -8.3380     1.3820 c5         1 1RG       0.013300
      8 CAA        -10.5450   -11.5300     7.1170 c          1 1RG       0.606900
      9 CAB         -9.8300   -11.6240     5.7920 c3         1 1RG      -0.179700
     10 OAC        -11.3880   -12.3140     7.4940 o          1 1RG      -0.531100
     11 CAD        -10.0670   -10.3290     5.0170 c5         1 1RG       0.161500
     12 CAE         -8.3330   -11.9280     6.0040 c3         1 1RG       0.177300
     13 CAF         -7.5330   -10.8490     6.7220 c3         1 1RG      -0.124100
     14 OAG         -8.2990   -13.1650     6.7310 oh         1 1RG      -0.671000
     15 CAH         -9.5220   -10.2400     3.5740 c5         1 1RG      -0.039500
     16 CAI        -10.5050    -9.2210     3.0040 c2         1 1RG      -0.150600
     17 NAJ        -11.5030   -10.0010     4.9240 nu         1 1RG      -0.737200
     18 SAK        -10.2410    -8.3680     1.4990 ss         1 1RG      -0.164600
     19 CAL        -11.6430    -9.2340     3.7320 ce         1 1RG       0.053800
     20 CAM        -12.9680    -8.6070     3.3980 c          1 1RG       0.709200
     21 OAT        -13.0440    -8.0040     2.2940 o          1 1RG      -0.700500
     22 OAU        -13.8970    -8.7520     4.2340 o          1 1RG      -0.700500
     23 NAX         -6.4640    -5.3280    -1.5640 ns         1 1RG      -0.149000
     24 CAY         -6.4020    -4.5330    -2.7240 ca         1 1RG      -0.060000
     25 CAZ         -5.4200    -4.8640    -3.6630 ca         1 1RG      -0.138000
     26 CBA         -5.2870    -4.1570    -4.8510 ca         1 1RG      -0.112600
     27 CBB         -6.1530    -3.0900    -5.1010 ca         1 1RG      -0.111000
     28 CBC         -7.1180    -2.7450    -4.1640 ca         1 1RG      -0.127000
     29 CBD         -7.2560    -3.4560    -2.9740 ca         1 1RG      -0.152000
     30 CBE         -4.2070    -4.5510    -5.8610 c          1 1RG       0.707600
     31 OBF         -4.2490    -3.9920    -6.9860 o          1 1RG      -0.728500
     32 OBG         -3.3630    -5.4040    -5.4850 o          1 1RG      -0.728500
     33 HN          -6.9790    -5.5430     2.2760 hn         1 1RG       0.408000
     34 HA          -6.1080    -6.7700     0.4230 h1         1 1RG       0.011700
     35 HB          -8.9370    -7.3140    -0.4810 hc         1 1RG       0.063200
     36 HBA         -7.5160    -8.3440    -0.6280 hc         1 1RG       0.063200
     37 HD          -6.7610    -7.8950     2.6960 h1         1 1RG       0.031700
     38 HDA         -8.3210    -7.3810     3.3660 h1         1 1RG       0.031700
     39 HG          -8.0410    -9.3580     1.4220 h1         1 1RG       0.049700
     40 HAA        -10.2640   -10.6720     7.7550 h4         1 1RG      -0.015800
     41 HAB        -10.2630   -12.4680     5.2510 hc         1 1RG       0.082700
     42 HAD         -9.6090    -9.5060     5.5740 h1         1 1RG       0.057700
     43 HAE         -7.8900   -12.0840     5.0160 h1         1 1RG       0.040700
     44 HAF         -6.5010   -11.1870     6.8370 hc         1 1RG       0.040700
     45 HAFA        -7.5140    -9.9230     6.1460 hc         1 1RG       0.040700
     46 HAFB        -7.9340   -10.6380     7.7140 hc         1 1RG       0.040700
     47 HOAG        -7.3750   -13.4130     6.8600 ho         1 1RG       0.431000
     48 HAH         -8.4960    -9.8770     3.6000 hc         1 1RG       0.037700
     49 HNAJ       -12.1120   -10.8130     4.9340 hn         1 1RG       0.440000
     50 HNAX        -5.7770    -6.0670    -1.5250 hn         1 1RG       0.140000
     51 HAZ         -4.7480    -5.6910    -3.4710 ha         1 1RG       0.122000
     52 HBB         -6.0560    -2.5390    -6.0250 ha         1 1RG       0.123000
     53 HBC         -7.7820    -1.9110    -4.3540 ha         1 1RG       0.087000
     54 HBD         -8.0090    -3.1860    -2.2530 ha         1 1RG       0.129000
     55 CAS         -9.5860   -11.5310     2.7490 c3         1 1RG      -0.084100
     56 HAS         -9.3470   -11.3220     1.7060 hc         1 1RG       0.030367
     57 HASA        -8.8790   -12.2780     3.1110 hc         1 1RG       0.030367
     58 HASB       -10.5900   -11.9590     2.7830 hc         1 1RG       0.030367
@<TRIPOS>BOND
     1     1     3 2   
     2     1     4 1   
     3     1    23 1   
     4     2     4 1   
     5     2     6 1   
     6     2    33 1   
     7     4     5 1   
     8     4    34 1   
     9     5     7 1   
    10     5    35 1   
    11     5    36 1   
    12     6     7 1   
    13     6    37 1   
    14     6    38 1   
    15     7    18 1   
    16     7    39 1   
    17     8     9 1   
    18     8    10 2   
    19     8    40 1   
    20     9    11 1   
    21     9    12 1   
    22     9    41 1   
    23    11    15 1   
    24    11    17 1   
    25    11    42 1   
    26    12    13 1   
    27    12    14 1   
    28    12    43 1   
    29    13    44 1   
    30    13    45 1   
    31    13    46 1   
    32    14    47 1   
    33    15    16 1   
    34    15    48 1   
    35    15    55 1   
    36    16    18 1   
    37    16    19 2   
    38    17    19 1   
    39    17    49 1   
    40    19    20 1   
    41    20    21 1   
    42    20    22 1   
    43    23    24 1   
    44    23    50 1   
    45    24    25 ar  
    46    24    29 ar  
    47    25    26 ar  
    48    25    51 1   
    49    26    27 ar  
    50    26    30 1   
    51    27    28 ar  
    52    27    52 1   
    53    28    29 ar  
    54    28    53 1   
    55    29    54 1   
    56    30    31 1   
    57    30    32 1   
    58    55    56 1   
    59    55    57 1   
    60    55    58 1   
@<TRIPOS>SUBSTRUCTURE
     1 1RG         1 TEMP              0 ****  ****    0 ROOT
