@<TRIPOS>MOLECULE
1RH
   74    78     1     0     0
SMALL
No Charge or Current Charge


@<TRIPOS>ATOM
      1 C28         -0.0560    -2.6040     2.4510 c3         1 1RH       0.145900
      2 O27          0.1480    -2.5510     1.0280 os         1 1RH      -0.332100
      3 C26          1.4010    -2.4240     0.4560 ca         1 1RH       0.170100
      4 C25          2.5690    -2.4690     1.2430 ca         1 1RH      -0.180000
      5 C24          3.8250    -2.3160     0.6480 ca         1 1RH      -0.054000
      6 C23          3.9320    -2.1150    -0.7360 ca         1 1RH      -0.079000
      7 C37          5.2130    -1.9530    -1.2990 ca         1 1RH      -0.089000
      8 C38          5.3590    -1.7460    -2.6770 ca         1 1RH      -0.123000
      9 C39          4.2240    -1.7050    -3.4970 ca         1 1RH      -0.096000
     10 C40          2.9430    -1.8670    -2.9430 ca         1 1RH      -0.112000
     11 C22          2.7710    -2.0720    -1.5500 ca         1 1RH       0.019000
     12 C21          1.4880    -2.2300    -0.9460 ca         1 1RH      -0.160300
     13 C20          0.1660    -2.1640    -1.7300 c3         1 1RH       0.164300
     14 N11         -0.6270    -0.9530    -1.3910 n          1 1RH      -0.222400
     15 C9          -1.9830    -1.1080    -1.0160 c          1 1RH       0.570000
     16 O10         -2.5640    -2.1870    -1.1100 o          1 1RH      -0.545000
     17 C7          -2.7110     0.1280    -0.4360 c3         1 1RH       0.016700
     18 C15         -2.0040     0.5860     0.8600 c3         1 1RH       0.101000
     19 N6          -4.1470    -0.1680    -0.2030 ns         1 1RH      -0.484900
     20 C5          -5.1280     0.7800     0.0200 c          1 1RH       0.613100
     21 O8          -4.8700     1.9780     0.0380 o          1 1RH      -0.593100
     22 C3          -6.5750     0.2100     0.2450 c3         1 1RH       0.099500
     23 C4          -7.5450     0.7430    -0.8370 c3         1 1RH      -0.129100
     24 N2          -7.1100     0.4980     1.6170 n7         1 1RH      -0.856400
     25 C1          -8.3560    -0.1930     2.0160 c3         1 1RH       0.150100
     26 C12         -0.0040     0.3330    -1.5800 ca         1 1RH      -0.039000
     27 C16          0.5190     0.6490    -2.8520 ca         1 1RH      -0.112000
     28 C18          1.0690     1.9130    -3.1110 ca         1 1RH      -0.098000
     29 C17          1.0730     2.8890    -2.1070 ca         1 1RH      -0.104000
     30 C19          0.4820     2.6130    -0.8650 ca         1 1RH      -0.103000
     31 C13         -0.1380     1.3690    -0.6200 ca         1 1RH      -0.064000
     32 N14         -0.6080     1.0680     0.7100 n          1 1RH      -0.225400
     33 C29          0.0740     1.4430     1.9030 c          1 1RH       0.630700
     34 O30         -0.5290     1.5220     2.9690 o          1 1RH      -0.607100
     35 C31          1.5780     1.6590     1.8870 ca         1 1RH      -0.209600
     36 C32          2.4330     1.0070     0.9670 ca         1 1RH      -0.017000
     37 C33          3.8200     1.2270     1.0020 ca         1 1RH      -0.204000
     38 C34          4.3750     2.0830     1.9580 ca         1 1RH       0.331000
     39 N41          5.7230     2.2920     1.9900 nv         1 1RH      -1.089000
     40 C35          3.5450     2.7170     2.8880 ca         1 1RH      -0.204000
     41 C36          2.1560     2.5030     2.8600 ca         1 1RH      -0.017000
     42 H1           0.4360    -3.4830     2.8840 h1         1 1RH       0.045367
     43 H2           0.3400    -1.7010     2.9340 h1         1 1RH       0.045367
     44 H3          -1.1270    -2.6690     2.6780 h1         1 1RH       0.045367
     45 H4           2.5240    -2.6170     2.3170 ha         1 1RH       0.124000
     46 H5           4.7180    -2.3470     1.2690 ha         1 1RH       0.113000
     47 H6           6.0980    -1.9850    -0.6680 ha         1 1RH       0.109000
     48 H7           6.3500    -1.6200    -3.1090 ha         1 1RH       0.114000
     49 H8           4.3350    -1.5460    -4.5680 ha         1 1RH       0.112000
     50 H9           2.1050    -1.8290    -3.6270 ha         1 1RH       0.113000
     51 H10          0.3050    -2.2060    -2.8120 h1         1 1RH       0.068700
     52 H11         -0.3970    -3.0710    -1.4790 h1         1 1RH       0.068700
     53 H12         -2.6460     0.9270    -1.1860 h1         1 1RH       0.103700
     54 H13         -2.5890     1.4020     1.3040 h1         1 1RH       0.063200
     55 H14         -2.0100    -0.2470     1.5750 h1         1 1RH       0.063200
     56 H15         -4.4420    -1.1390    -0.2120 hn         1 1RH       0.316500
     57 H16         -6.5000    -0.8780     0.1100 h1         1 1RH       0.060700
     58 H17         -7.7070     1.8220    -0.7230 hc         1 1RH       0.049033
     59 H18         -7.1310     0.5670    -1.8370 hc         1 1RH       0.049033
     60 H19         -8.5160     0.2370    -0.7890 hc         1 1RH       0.049033
     61 H20         -7.2450     1.5150     1.7140 hn         1 1RH       0.431000
     62 H22         -8.2520    -1.2810     1.9060 h1         1 1RH       0.029367
     63 H23         -8.5920     0.0200     3.0670 h1         1 1RH       0.029367
     64 H24         -9.2080     0.1360     1.4070 h1         1 1RH       0.029367
     65 H25          0.5130    -0.0890    -3.6490 ha         1 1RH       0.124000
     66 H26          1.4970     2.1330    -4.0860 ha         1 1RH       0.119000
     67 H27          1.5190     3.8640    -2.2940 ha         1 1RH       0.121000
     68 H28          0.4820     3.3850    -0.0990 ha         1 1RH       0.127000
     69 H29          2.0390     0.3150     0.2310 ha         1 1RH       0.129000
     70 H30          4.4590     0.7220     0.2840 ha         1 1RH       0.117000
     71 H31          6.3340     1.7030     1.4280 hn         1 1RH       0.462000
     72 H32          6.1400     2.7730     2.7850 hn         1 1RH       0.462000
     73 H33          3.9710     3.3770     3.6380 ha         1 1RH       0.117000
     74 H34          1.5280     3.0070     3.5930 ha         1 1RH       0.129000
@<TRIPOS>BOND
     1     1     2 1   
     2     1    42 1   
     3     1    43 1   
     4     1    44 1   
     5     2     3 1   
     6     3     4 ar  
     7     3    12 ar  
     8     4     5 ar  
     9     4    45 1   
    10     5     6 ar  
    11     5    46 1   
    12     6     7 ar  
    13     6    11 ar  
    14     7     8 ar  
    15     7    47 1   
    16     8     9 ar  
    17     8    48 1   
    18     9    10 ar  
    19     9    49 1   
    20    10    11 ar  
    21    10    50 1   
    22    11    12 ar  
    23    12    13 1   
    24    13    14 1   
    25    13    51 1   
    26    13    52 1   
    27    14    15 1   
    28    14    26 1   
    29    15    16 2   
    30    15    17 1   
    31    17    18 1   
    32    17    19 1   
    33    17    53 1   
    34    18    32 1   
    35    18    54 1   
    36    18    55 1   
    37    19    20 1   
    38    19    56 1   
    39    20    21 2   
    40    20    22 1   
    41    22    23 1   
    42    22    24 1   
    43    22    57 1   
    44    23    58 1   
    45    23    59 1   
    46    23    60 1   
    47    24    25 1   
    48    24    61 1   
    49    25    62 1   
    50    25    63 1   
    51    25    64 1   
    52    26    27 ar  
    53    26    31 ar  
    54    27    28 ar  
    55    27    65 1   
    56    28    29 ar  
    57    28    66 1   
    58    29    30 ar  
    59    29    67 1   
    60    30    31 ar  
    61    30    68 1   
    62    31    32 1   
    63    32    33 1   
    64    33    34 2   
    65    33    35 1   
    66    35    36 ar  
    67    35    41 ar  
    68    36    37 ar  
    69    36    69 1   
    70    37    38 ar  
    71    37    70 1   
    72    38    39 1   
    73    38    40 ar  
    74    39    71 1   
    75    39    72 1   
    76    40    41 ar  
    77    40    73 1   
    78    41    74 1   
@<TRIPOS>SUBSTRUCTURE
     1 1RH         1 TEMP              0 ****  ****    0 ROOT
