@<TRIPOS>MOLECULE
1RH
   74    78     1     0     0
SMALL
abcg2


@<TRIPOS>ATOM
      1 C28         -0.2600    -2.8190     2.1840 c3         1 1RH       0.145900
      2 O27         -0.1540    -2.4320     0.8290 os         1 1RH      -0.332100
      3 C26          1.0550    -2.3330     0.2550 ca         1 1RH       0.170100
      4 C25          2.2450    -2.6690     0.9340 ca         1 1RH      -0.180000
      5 C24          3.4470    -2.5500     0.2980 ca         1 1RH      -0.054000
      6 C23          3.5280    -2.0880    -1.0300 ca         1 1RH      -0.079000
      7 C37          4.7810    -1.9450    -1.6700 ca         1 1RH      -0.089000
      8 C38          4.8660    -1.4800    -2.9520 ca         1 1RH      -0.123000
      9 C39          3.6860    -1.1450    -3.6460 ca         1 1RH      -0.096000
     10 C40          2.4600    -1.2750    -3.0540 ca         1 1RH      -0.112000
     11 C22          2.3300    -1.7480    -1.7200 ca         1 1RH       0.019000
     12 C21          1.0800    -1.8820    -1.0560 ca         1 1RH      -0.160300
     13 C20         -0.2340    -1.5630    -1.7230 c3         1 1RH       0.164300
     14 N11         -0.8980    -0.4150    -1.1100 n          1 1RH      -0.222400
     15 C9          -2.0950    -0.5670    -0.4870 c          1 1RH       0.570000
     16 O10         -2.7360    -1.5980    -0.5050 o          1 1RH      -0.545000
     17 C7          -2.5950     0.6590     0.2840 c3         1 1RH       0.016700
     18 C15         -1.7460     0.8740     1.5370 c3         1 1RH       0.101000
     19 N6          -3.9590     0.4800     0.6880 ns         1 1RH      -0.484900
     20 C5          -4.9630     0.5330    -0.2100 c          1 1RH       0.613100
     21 O8          -4.7970     0.9120    -1.3590 o          1 1RH      -0.593100
     22 C3          -6.3140     0.0560     0.2970 c3         1 1RH       0.099500
     23 C4          -6.4590    -1.4270    -0.0700 c3         1 1RH      -0.129100
     24 N2          -7.3380     0.9340    -0.2290 n7         1 1RH      -0.856400
     25 C1          -8.6650     0.6820     0.2950 c3         1 1RH       0.150100
     26 C12         -0.2690     0.8490    -1.1980 ca         1 1RH      -0.039000
     27 C16          0.0820     1.3620    -2.4410 ca         1 1RH      -0.112000
     28 C18          0.6890     2.6030    -2.5440 ca         1 1RH      -0.098000
     29 C17          0.9140     3.3620    -1.4040 ca         1 1RH      -0.104000
     30 C19          0.5490     2.8670    -0.1640 ca         1 1RH      -0.103000
     31 C13         -0.0050     1.5970    -0.0480 ca         1 1RH      -0.064000
     32 N14         -0.3350     1.0600     1.2170 n          1 1RH      -0.225400
     33 C29          0.5400     1.0290     2.2720 c          1 1RH       0.630700
     34 O30          0.1140     0.8480     3.4050 o          1 1RH      -0.607100
     35 C31          1.9920     1.2200     2.0370 ca         1 1RH      -0.209600
     36 C32          2.6840     0.7910     0.9030 ca         1 1RH      -0.017000
     37 C33          4.0460     0.9670     0.7850 ca         1 1RH      -0.204000
     38 C34          4.7820     1.5990     1.7980 ca         1 1RH       0.331000
     39 N41          6.1190     1.8350     1.6530 nv         1 1RH      -1.089000
     40 C35          4.0930     2.0200     2.9450 ca         1 1RH      -0.204000
     41 C36          2.7320     1.8190     3.0600 ca         1 1RH      -0.017000
     42 H1           0.1310    -3.8240     2.3590 h1         1 1RH       0.045367
     43 H2           0.2500    -2.1190     2.8520 h1         1 1RH       0.045367
     44 H3          -1.3220    -2.8130     2.4170 h1         1 1RH       0.045367
     45 H4           2.2190    -3.0160     1.9580 ha         1 1RH       0.124000
     46 H5           4.3600    -2.8000     0.8240 ha         1 1RH       0.113000
     47 H6           5.6780    -2.2080    -1.1210 ha         1 1RH       0.109000
     48 H7           5.8280    -1.3690    -3.4350 ha         1 1RH       0.114000
     49 H8           3.7500    -0.7780    -4.6620 ha         1 1RH       0.112000
     50 H9           1.5840    -1.0080    -3.6270 ha         1 1RH       0.113000
     51 H10         -0.1100    -1.3800    -2.7880 h1         1 1RH       0.068700
     52 H11         -0.9130    -2.4090    -1.6460 h1         1 1RH       0.068700
     53 H12         -2.5470     1.5460    -0.3520 h1         1 1RH       0.103700
     54 H13         -2.1390     1.7430     2.0730 h1         1 1RH       0.063200
     55 H14         -1.8480     0.0070     2.1920 h1         1 1RH       0.063200
     56 H15         -4.1390     0.0420     1.5780 hn         1 1RH       0.316500
     57 H16         -6.3360     0.1450     1.3890 h1         1 1RH       0.060700
     58 H17         -6.4770    -1.5540    -1.1530 hc         1 1RH       0.049033
     59 H18         -5.6300    -2.0160     0.3250 hc         1 1RH       0.049033
     60 H19         -7.3820    -1.8410     0.3370 hc         1 1RH       0.049033
     61 H20         -7.3510     0.8660    -1.2380 hn         1 1RH       0.431000
     62 H22         -8.6730     0.8430     1.3750 h1         1 1RH       0.029367
     63 H23         -9.3640     1.3930    -0.1440 h1         1 1RH       0.029367
     64 H24         -9.0580    -0.3250     0.1100 h1         1 1RH       0.029367
     65 H25         -0.1310     0.7940    -3.3370 ha         1 1RH       0.124000
     66 H26          0.9620     2.9850    -3.5180 ha         1 1RH       0.119000
     67 H27          1.3620     4.3440    -1.4800 ha         1 1RH       0.121000
     68 H28          0.7120     3.4570     0.7280 ha         1 1RH       0.127000
     69 H29          2.1680     0.2900     0.0980 ha         1 1RH       0.129000
     70 H30          4.5520     0.6030    -0.1020 ha         1 1RH       0.117000
     71 H31          6.6170     1.2860     0.9730 hn         1 1RH       0.462000
     72 H32          6.6520     2.0190     2.4870 hn         1 1RH       0.462000
     73 H33          4.6330     2.5050     3.7490 ha         1 1RH       0.117000
     74 H34          2.2330     2.1520     3.9610 ha         1 1RH       0.129000
@<TRIPOS>BOND
     1     1     2 1   
     2     1    42 1   
     3     1    43 1   
     4     1    44 1   
     5     2     3 1   
     6     3     4 ar  
     7     3    12 ar  
     8     4     5 ar  
     9     4    45 1   
    10     5     6 ar  
    11     5    46 1   
    12     6     7 ar  
    13     6    11 ar  
    14     7     8 ar  
    15     7    47 1   
    16     8     9 ar  
    17     8    48 1   
    18     9    10 ar  
    19     9    49 1   
    20    10    11 ar  
    21    10    50 1   
    22    11    12 ar  
    23    12    13 1   
    24    13    14 1   
    25    13    51 1   
    26    13    52 1   
    27    14    15 1   
    28    14    26 1   
    29    15    16 2   
    30    15    17 1   
    31    17    18 1   
    32    17    19 1   
    33    17    53 1   
    34    18    32 1   
    35    18    54 1   
    36    18    55 1   
    37    19    20 1   
    38    19    56 1   
    39    20    21 2   
    40    20    22 1   
    41    22    23 1   
    42    22    24 1   
    43    22    57 1   
    44    23    58 1   
    45    23    59 1   
    46    23    60 1   
    47    24    25 1   
    48    24    61 1   
    49    25    62 1   
    50    25    63 1   
    51    25    64 1   
    52    26    27 ar  
    53    26    31 ar  
    54    27    28 ar  
    55    27    65 1   
    56    28    29 ar  
    57    28    66 1   
    58    29    30 ar  
    59    29    67 1   
    60    30    31 ar  
    61    30    68 1   
    62    31    32 1   
    63    32    33 1   
    64    33    34 2   
    65    33    35 1   
    66    35    36 ar  
    67    35    41 ar  
    68    36    37 ar  
    69    36    69 1   
    70    37    38 ar  
    71    37    70 1   
    72    38    39 1   
    73    38    40 ar  
    74    39    71 1   
    75    39    72 1   
    76    40    41 ar  
    77    40    73 1   
    78    41    74 1   
@<TRIPOS>SUBSTRUCTURE
     1 1RH         1 TEMP              0 ****  ****    0 ROOT
