@<TRIPOS>MOLECULE
1RI
   46    49     1     0     0
SMALL
No Charge or Current Charge


@<TRIPOS>ATOM
      1 N1           2.7410    -7.4600   -16.4490 ns         1 1RI      -0.279900
      2 N3          -2.0070    -3.7610   -18.8110 nb         1 1RI      -0.163500
      3 C4           2.8900   -11.2600   -13.3080 ca         1 1RI       0.125100
      4 C5           3.1060   -12.5350   -11.2620 ca         1 1RI       0.104100
      5 C6           4.3450   -12.0100   -10.8420 ca         1 1RI      -0.129500
      6 C7           5.0960   -12.6810    -9.8600 ca         1 1RI      -0.094000
      7 C8           4.6060   -13.8700    -9.2920 ca         1 1RI      -0.119000
      8 C10          2.6130   -13.7160   -10.6830 ca         1 1RI      -0.129500
      9 C13          3.9430    -9.9510   -15.5610 ca         1 1RI      -0.116000
     10 C15          2.2090    -3.8580   -17.0040 cc         1 1RI       0.128700
     11 C17          1.7150    -1.6830   -17.3300 cd         1 1RI      -0.110000
     12 C20         -2.9180    -4.4350   -18.0810 ca         1 1RI       0.119900
     13 C21         -3.2760    -4.0160   -16.7890 ca         1 1RI      -0.226000
     14 C22         -2.6510    -2.8640   -16.2840 ca         1 1RI       0.119900
     15 C1           2.1890    -8.0780   -15.3290 c          1 1RI       0.631700
     16 C11          3.9800   -11.8190   -13.9980 ca         1 1RI      -0.149000
     17 C12          4.5060   -11.1610   -15.1200 ca         1 1RI      -0.089000
     18 C16          2.4880    -2.5830   -16.5640 cd         1 1RI      -0.184000
     19 C18          1.0370    -2.4580   -18.2210 cc         1 1RI       0.177300
     20 C19         -1.4530    -2.6680   -18.2400 ca         1 1RI       0.211300
     21 C2           2.8340    -9.3800   -14.8850 ca         1 1RI      -0.130600
     22 C3           2.3170   -10.0580   -13.7540 ca         1 1RI      -0.082000
     23 C9           3.3640   -14.3870    -9.7010 ca         1 1RI      -0.094000
     24 N2           2.2670    -6.2780   -16.9910 n2         1 1RI      -0.373300
     25 N4          -1.7400    -2.1860   -17.0090 nb         1 1RI      -0.163500
     26 O1           1.2340    -7.5950   -14.7280 o          1 1RI      -0.523100
     27 O3           1.2760    -3.7930   -18.0230 os         1 1RI      -0.170000
     28 S1          -0.2460    -1.7760   -19.2080 ss         1 1RI      -0.217600
     29 H1           3.5260    -7.9400   -16.8750 hn         1 1RI       0.308500
     30 H2           4.7240   -11.0850   -11.2700 ha         1 1RI       0.128500
     31 H3           6.0540   -12.2790    -9.5380 ha         1 1RI       0.117000
     32 H4           5.1860   -14.3890    -8.5320 ha         1 1RI       0.118000
     33 H5           1.6510   -14.1130   -10.9990 ha         1 1RI       0.128500
     34 H6           4.3810    -9.4740   -16.4350 ha         1 1RI       0.116000
     35 H7           1.6520    -0.6050   -17.2220 ha         1 1RI       0.150000
     36 H9          -4.0110    -4.5620   -16.2030 ha         1 1RI       0.136000
     37 H10         -2.8810    -2.4800   -15.2920 h4         1 1RI       0.026600
     38 H11          4.4150   -12.7600   -13.6700 ha         1 1RI       0.131000
     39 H12          5.3520   -11.5910   -15.6530 ha         1 1RI       0.119000
     40 H14          3.1620    -2.3250   -15.7540 ha         1 1RI       0.142000
     41 H15          1.4670    -9.6530   -13.2100 ha         1 1RI       0.152000
     42 H16          2.9830   -15.3050    -9.2570 ha         1 1RI       0.117000
     43 O2           2.3440   -11.8900   -12.2110 os         1 1RI      -0.249200
     44 C14          2.7130    -5.1480   -16.5320 ce         1 1RI       0.261200
     45 H8          -3.3630    -5.3180   -18.5380 h4         1 1RI       0.026600
     46 H13          3.4540    -5.1000   -15.7310 h4         1 1RI      -0.001200
@<TRIPOS>BOND
     1     1    15 1   
     2     1    24 1   
     3     1    29 1   
     4     2    12 ar  
     5     2    20 ar  
     6     3    16 ar  
     7     3    22 ar  
     8     3    43 1   
     9     4     5 ar  
    10     4     8 ar  
    11     4    43 1   
    12     5     6 ar  
    13     5    30 1   
    14     6     7 ar  
    15     6    31 1   
    16     7    23 ar  
    17     7    32 1   
    18     8    23 ar  
    19     8    33 1   
    20     9    17 ar  
    21     9    21 ar  
    22     9    34 1   
    23    10    18 2   
    24    10    27 1   
    25    10    44 1   
    26    11    18 1   
    27    11    19 2   
    28    11    35 1   
    29    12    13 ar  
    30    12    45 1   
    31    13    14 ar  
    32    13    36 1   
    33    14    25 ar  
    34    14    37 1   
    35    15    21 1   
    36    15    26 2   
    37    16    17 ar  
    38    16    38 1   
    39    17    39 1   
    40    18    40 1   
    41    19    27 1   
    42    19    28 1   
    43    20    25 ar  
    44    20    28 1   
    45    21    22 ar  
    46    22    41 1   
    47    23    42 1   
    48    24    44 2   
    49    44    46 1   
@<TRIPOS>SUBSTRUCTURE
     1 1RI         1 TEMP              0 ****  ****    0 ROOT
