@<TRIPOS>MOLECULE
1RI
   46    49     1     0     0
SMALL
bcc


@<TRIPOS>ATOM
      1 N1           2.9270    -7.3680   -15.8610 ns         1 1RI      -0.346900
      2 N3          -3.2460    -2.8980   -18.4710 nb         1 1RI      -0.689500
      3 C4           3.2990   -11.3980   -13.3690 ca         1 1RI       0.125100
      4 C5           3.1920   -12.8310   -11.4930 ca         1 1RI       0.104100
      5 C6           3.7550   -12.0420   -10.4980 ca         1 1RI      -0.147500
      6 C7           4.2970   -12.6520    -9.3770 ca         1 1RI      -0.112000
      7 C8           4.2710   -14.0350    -9.2430 ca         1 1RI      -0.137000
      8 C10          3.1610   -14.2120   -11.3740 ca         1 1RI      -0.147500
      9 C13          4.5850    -9.6000   -15.0550 ca         1 1RI      -0.134000
     10 C15          2.2250    -4.2240   -17.4180 cc         1 1RI       0.238400
     11 C17          1.6540    -2.3330   -18.4380 cd         1 1RI      -0.193300
     12 C20         -4.1560    -2.7550   -17.5160 ca         1 1RI       0.448200
     13 C21         -3.8130    -2.7030   -16.1750 ca         1 1RI      -0.374600
     14 C22         -2.4650    -2.8100   -15.8820 ca         1 1RI       0.448200
     15 C1           2.3470    -8.5840   -15.6560 c          1 1RI       0.698700
     16 C11          4.6830   -11.4470   -13.5040 ca         1 1RI      -0.167000
     17 C12          5.3130   -10.5470   -14.3490 ca         1 1RI      -0.107000
     18 C16          2.6730    -2.9620   -17.6790 cd         1 1RI      -0.267300
     19 C18          0.6680    -3.2570   -18.5780 cc         1 1RI       0.287000
     20 C19         -1.9910    -2.9860   -18.0660 ca         1 1RI       0.737300
     21 C2           3.2000    -9.5590   -14.9150 ca         1 1RI      -0.130600
     22 C3           2.5570   -10.4660   -14.0800 ca         1 1RI      -0.100000
     23 C9           3.6980   -14.8100   -10.2410 ca         1 1RI      -0.112000
     24 N2           2.2790    -6.4250   -16.5610 n2         1 1RI      -0.373300
     25 N4          -1.5430    -2.9540   -16.8280 nb         1 1RI      -0.689500
     26 O1           1.2230    -8.8560   -16.0260 o          1 1RI      -0.523100
     27 O3           1.0130    -4.4120   -17.9710 os         1 1RI      -0.258800
     28 S1          -0.8470    -3.1770   -19.4090 ss         1 1RI      -0.217600
     29 H1           3.8140    -7.1460   -15.4210 hn         1 1RI       0.308500
     30 H2           3.7710   -10.9630   -10.5940 ha         1 1RI       0.146500
     31 H3           4.7380   -12.0400    -8.6010 ha         1 1RI       0.135000
     32 H4           4.6920   -14.5040    -8.3630 ha         1 1RI       0.136000
     33 H5           2.7160   -14.8120   -12.1580 ha         1 1RI       0.146500
     34 H6           5.1030    -8.9310   -15.7290 ha         1 1RI       0.134000
     35 H7           1.6390    -1.3260   -18.8210 ha         1 1RI       0.168000
     36 H9          -4.5560    -2.5840   -15.4010 ha         1 1RI       0.154000
     37 H10         -2.1090    -2.7800   -14.8580 h4         1 1RI       0.026600
     38 H11          5.2700   -12.1800   -12.9660 ha         1 1RI       0.149000
     39 H12          6.3870   -10.5950   -14.4670 ha         1 1RI       0.137000
     40 H14          3.6140    -2.5410   -17.3630 ha         1 1RI       0.160000
     41 H15          1.4800   -10.4450   -13.9700 ha         1 1RI       0.170000
     42 H16          3.6750   -15.8880   -10.1480 ha         1 1RI       0.135000
     43 O2           2.5990   -12.2710   -12.5950 os         1 1RI      -0.249200
     44 C14          2.8480    -5.2930   -16.6830 ce         1 1RI       0.261200
     45 H8          -5.1890    -2.6790   -17.8350 h4         1 1RI       0.026600
     46 H13          3.8190    -5.0540   -16.2450 h4         1 1RI      -0.001200
@<TRIPOS>BOND
     1     1    15 1   
     2     1    24 1   
     3     1    29 1   
     4     2    12 ar  
     5     2    20 ar  
     6     3    16 ar  
     7     3    22 ar  
     8     3    43 1   
     9     4     5 ar  
    10     4     8 ar  
    11     4    43 1   
    12     5     6 ar  
    13     5    30 1   
    14     6     7 ar  
    15     6    31 1   
    16     7    23 ar  
    17     7    32 1   
    18     8    23 ar  
    19     8    33 1   
    20     9    17 ar  
    21     9    21 ar  
    22     9    34 1   
    23    10    18 2   
    24    10    27 1   
    25    10    44 1   
    26    11    18 1   
    27    11    19 2   
    28    11    35 1   
    29    12    13 ar  
    30    12    45 1   
    31    13    14 ar  
    32    13    36 1   
    33    14    25 ar  
    34    14    37 1   
    35    15    21 1   
    36    15    26 2   
    37    16    17 ar  
    38    16    38 1   
    39    17    39 1   
    40    18    40 1   
    41    19    27 1   
    42    19    28 1   
    43    20    25 ar  
    44    20    28 1   
    45    21    22 ar  
    46    22    41 1   
    47    23    42 1   
    48    24    44 2   
    49    44    46 1   
@<TRIPOS>SUBSTRUCTURE
     1 1RI         1 TEMP              0 ****  ****    0 ROOT
