@<TRIPOS>MOLECULE
1RJ
   43    45     1     0     0
SMALL
No Charge or Current Charge


@<TRIPOS>ATOM
      1 C1          43.3640    -6.2080    18.1720 ca         1 1RJ      -0.075300
      2 C2          44.2340    -6.0150    19.2680 ca         1 1RJ      -0.149000
      3 C3          45.5060    -6.6070    19.2740 ca         1 1RJ       0.172000
      4 C7          43.3910    -1.1880    16.1450 ca         1 1RJ       0.089000
      5 C8          42.8880    -1.9140    17.2630 ca         1 1RJ      -0.189000
      6 C9          42.6190    -3.2960    17.0930 ca         1 1RJ       0.413900
      7 C11         43.2990    -3.1600    14.9230 ca         1 1RJ       0.194900
      8 C13         43.6720     0.2080    16.2860 ca         1 1RJ      -0.146600
      9 C14         43.4420     0.8240    17.5390 ca         1 1RJ      -0.024000
     10 C15         42.9490     0.0980    18.6280 ca         1 1RJ      -0.138000
     11 C16         42.6720    -1.2650    18.4970 ca         1 1RJ      -0.057000
     12 C21         41.9740    -5.5640    18.1490 c3         1 1RJ       0.281800
     13 C22         41.1010    -6.0550    19.3570 c3         1 1RJ       0.154800
     14 N23         39.6270    -5.8670    19.1950 n7         1 1RJ      -0.865400
     15 C24         39.1260    -4.4750    19.1780 c3         1 1RJ       0.145100
     16 C4          45.9280    -7.3970    18.1950 ca         1 1RJ      -0.146000
     17 C5          45.0720    -7.5950    17.0990 ca         1 1RJ      -0.083000
     18 C6          43.7960    -7.0020    17.0880 ca         1 1RJ      -0.106000
     19 N10         42.8230    -3.9160    15.9220 nb         1 1RJ      -0.285000
     20 N12         43.5870    -1.8470    14.9790 nb         1 1RJ      -0.263000
     21 C17         44.2120     1.1020    15.1740 c          1 1RJ       0.617700
     22 O18         44.4360     2.2900    15.3460 o          1 1RJ      -0.636100
     23 N19         44.4600     0.5980    13.9500 nt         1 1RJ      -0.598000
     24 N20         42.1200    -4.0880    18.1270 nu         1 1RJ      -0.907100
     25 F25         46.3300    -6.4140    20.3270 f          1 1RJ      -0.179000
     26 H1          43.9280    -5.4000    20.1100 ha         1 1RJ       0.124000
     27 H2          43.4680    -3.6580    13.9700 h5         1 1RJ       0.044100
     28 H3          43.6460     1.8840    17.6770 ha         1 1RJ       0.147000
     29 H4          42.7810     0.5960    19.5810 ha         1 1RJ       0.122000
     30 H5          42.2920    -1.7990    19.3640 ha         1 1RJ       0.104000
     31 H6          41.4550    -5.8960    17.2370 h1         1 1RJ       0.104700
     32 H7          41.2970    -7.1300    19.4750 h1         1 1RJ       0.040200
     33 H8          41.4540    -5.5730    20.2790 h1         1 1RJ       0.040200
     34 H9          39.1670    -6.3480    19.9810 hn         1 1RJ       0.417000
     35 H11         38.0280    -4.4660    19.1480 h1         1 1RJ       0.031367
     36 H12         39.4450    -3.9300    20.0760 h1         1 1RJ       0.031367
     37 H13         39.4830    -3.9320    18.2940 h1         1 1RJ       0.031367
     38 H14         46.9150    -7.8520    18.2090 ha         1 1RJ       0.134000
     39 H15         45.3950    -8.2050    16.2580 ha         1 1RJ       0.120000
     40 H16         43.1440    -7.1590    16.2320 ha         1 1RJ       0.123000
     41 H17         44.8160     1.2040    13.2270 hn         1 1RJ       0.335000
     42 H18         44.2870    -0.3800    13.7700 hn         1 1RJ       0.335000
     43 H19         41.9010    -3.5980    18.9880 hn         1 1RJ       0.493000
@<TRIPOS>BOND
     1     1     2 ar  
     2     1    12 1   
     3     1    18 ar  
     4     2     3 ar  
     5     2    26 1   
     6     3    16 ar  
     7     3    25 1   
     8     4     5 ar  
     9     4     8 ar  
    10     4    20 ar  
    11     5     6 ar  
    12     5    11 ar  
    13     6    19 ar  
    14     6    24 1   
    15     7    19 ar  
    16     7    20 ar  
    17     7    27 1   
    18     8     9 ar  
    19     8    21 1   
    20     9    10 ar  
    21     9    28 1   
    22    10    11 ar  
    23    10    29 1   
    24    11    30 1   
    25    12    13 1   
    26    12    24 1   
    27    12    31 1   
    28    13    14 1   
    29    13    32 1   
    30    13    33 1   
    31    14    15 1   
    32    14    34 1   
    33    15    35 1   
    34    15    36 1   
    35    15    37 1   
    36    16    17 ar  
    37    16    38 1   
    38    17    18 ar  
    39    17    39 1   
    40    18    40 1   
    41    21    22 2   
    42    21    23 1   
    43    23    41 1   
    44    23    42 1   
    45    24    43 1   
@<TRIPOS>SUBSTRUCTURE
     1 1RJ         1 TEMP              0 ****  ****    0 ROOT
