@<TRIPOS>MOLECULE
1RJ
   43    45     1     0     0
SMALL
abcg2


@<TRIPOS>ATOM
      1 C1          43.3890    -6.1790    18.0760 ca         1 1RJ      -0.075300
      2 C2          44.3450    -5.7380    18.9850 ca         1 1RJ      -0.149000
      3 C3          45.5520    -6.4040    19.0650 ca         1 1RJ       0.172000
      4 C7          43.3710    -1.1810    16.1990 ca         1 1RJ       0.089000
      5 C8          42.8370    -1.8820    17.3050 ca         1 1RJ      -0.189000
      6 C9          42.6320    -3.2980    17.1200 ca         1 1RJ       0.413900
      7 C11         43.3870    -3.1090    14.9910 ca         1 1RJ       0.194900
      8 C13         43.6240     0.2160    16.3190 ca         1 1RJ      -0.146600
      9 C14         43.3240     0.8370    17.5120 ca         1 1RJ      -0.024000
     10 C15         42.7830     0.1430    18.5970 ca         1 1RJ      -0.138000
     11 C16         42.5420    -1.2030    18.4970 ca         1 1RJ      -0.057000
     12 C21         42.0360    -5.5050    17.9910 c3         1 1RJ       0.281800
     13 C22         41.1000    -6.0530    19.0730 c3         1 1RJ       0.154800
     14 N23         39.7110    -5.6990    18.8760 n7         1 1RJ      -0.865400
     15 C24         39.3000    -4.4280    19.4440 c3         1 1RJ       0.145100
     16 C4          45.8510    -7.4980    18.2760 ca         1 1RJ      -0.146000
     17 C5          44.8900    -7.9320    17.3740 ca         1 1RJ      -0.083000
     18 C6          43.6690    -7.2790    17.2720 ca         1 1RJ      -0.106000
     19 N10         42.9080    -3.8800    15.9660 nb         1 1RJ      -0.285000
     20 N12         43.6390    -1.8310    15.0350 nb         1 1RJ      -0.263000
     21 C17         44.2030     1.1000    15.2410 c          1 1RJ       0.617700
     22 O18         44.3950     2.2890    15.4670 o          1 1RJ      -0.636100
     23 N19         44.4840     0.5320    14.0660 nt         1 1RJ      -0.598000
     24 N20         42.1480    -4.0640    18.1030 nu         1 1RJ      -0.907100
     25 F25         46.4670    -5.9650    19.9460 f          1 1RJ      -0.179000
     26 H1          44.1640    -4.8820    19.6240 ha         1 1RJ       0.124000
     27 H2          43.5960    -3.6130    14.0530 h5         1 1RJ       0.044100
     28 H3          43.5140     1.8970    17.6100 ha         1 1RJ       0.147000
     29 H4          42.5570     0.6690    19.5150 ha         1 1RJ       0.122000
     30 H5          42.1200    -1.7170    19.3510 ha         1 1RJ       0.104000
     31 H6          41.5950    -5.7390    17.0210 h1         1 1RJ       0.104700
     32 H7          41.1800    -7.1400    19.0280 h1         1 1RJ       0.040200
     33 H8          41.4860    -5.7570    20.0640 h1         1 1RJ       0.040200
     34 H9          39.1410    -6.4290    19.2770 hn         1 1RJ       0.417000
     35 H11         38.2110    -4.3800    19.4630 h1         1 1RJ       0.031367
     36 H12         39.6590    -4.2660    20.4700 h1         1 1RJ       0.031367
     37 H13         39.6440    -3.5910    18.8370 h1         1 1RJ       0.031367
     38 H14         46.8090    -7.9950    18.3600 ha         1 1RJ       0.134000
     39 H15         45.1000    -8.7830    16.7400 ha         1 1RJ       0.120000
     40 H16         42.9310    -7.6220    16.5570 ha         1 1RJ       0.123000
     41 H17         44.8760     1.0930    13.3280 hn         1 1RJ       0.335000
     42 H18         44.3130    -0.4590    13.9310 hn         1 1RJ       0.335000
     43 H19         42.0470    -3.6700    19.0230 hn         1 1RJ       0.493000
@<TRIPOS>BOND
     1     1     2 ar  
     2     1    12 1   
     3     1    18 ar  
     4     2     3 ar  
     5     2    26 1   
     6     3    16 ar  
     7     3    25 1   
     8     4     5 ar  
     9     4     8 ar  
    10     4    20 ar  
    11     5     6 ar  
    12     5    11 ar  
    13     6    19 ar  
    14     6    24 1   
    15     7    19 ar  
    16     7    20 ar  
    17     7    27 1   
    18     8     9 ar  
    19     8    21 1   
    20     9    10 ar  
    21     9    28 1   
    22    10    11 ar  
    23    10    29 1   
    24    11    30 1   
    25    12    13 1   
    26    12    24 1   
    27    12    31 1   
    28    13    14 1   
    29    13    32 1   
    30    13    33 1   
    31    14    15 1   
    32    14    34 1   
    33    15    35 1   
    34    15    36 1   
    35    15    37 1   
    36    16    17 ar  
    37    16    38 1   
    38    17    18 ar  
    39    17    39 1   
    40    18    40 1   
    41    21    22 2   
    42    21    23 1   
    43    23    41 1   
    44    23    42 1   
    45    24    43 1   
@<TRIPOS>SUBSTRUCTURE
     1 1RJ         1 TEMP              0 ****  ****    0 ROOT
