@<TRIPOS>MOLECULE
1RK
   72    76     1     0     0
SMALL
No Charge or Current Charge


@<TRIPOS>ATOM
      1 C29          1.7250    -3.8920     4.0920 c3         1 1RK       0.161900
      2 O28          1.6170    -2.6380     3.3950 os         1 1RK      -0.349100
      3 C27          2.4690    -2.2770     2.3670 ca         1 1RK       0.160100
      4 C30          3.5300    -3.1200     1.9730 ca         1 1RK      -0.216000
      5 C31          4.3880    -2.7380     0.9350 ca         1 1RK      -0.044000
      6 C32          4.2120    -1.5050     0.2890 ca         1 1RK      -0.084000
      7 C34          5.0990    -1.1410    -0.7440 ca         1 1RK      -0.083000
      8 C35          4.9670     0.0950    -1.4130 ca         1 1RK      -0.141600
      9 C38          5.9240     0.4890    -2.5260 c          1 1RK       0.712600
     10 O40          6.8040    -0.2970    -2.8470 o          1 1RK      -0.720500
     11 O39          5.7830     1.5790    -3.0620 o          1 1RK      -0.720500
     12 C36          3.9270     0.9620    -1.0160 ca         1 1RK      -0.043000
     13 C37          3.0420     0.6010     0.0130 ca         1 1RK      -0.166000
     14 C33          3.1600    -0.6420     0.6750 ca         1 1RK       0.009000
     15 C15          2.2640    -1.0370     1.7100 ca         1 1RK      -0.151300
     16 C14          1.0740    -0.1530     2.1260 c3         1 1RK       0.177300
     17 N13          0.0250     0.0500     1.0900 n          1 1RK      -0.220400
     18 C16         -0.6100    -1.0840     0.5120 c          1 1RK       0.566000
     19 O17         -0.2730    -2.2300     0.7840 o          1 1RK      -0.508000
     20 C12         -0.3090     1.4070     0.7250 ca         1 1RK      -0.039000
     21 C21         -0.5910     2.3550     1.7330 ca         1 1RK      -0.134000
     22 C19         -1.0750     3.6320     1.3990 ca         1 1RK      -0.109000
     23 C20         -1.3250     3.9650     0.0580 ca         1 1RK      -0.121000
     24 C18         -1.1200     3.0060    -0.9470 ca         1 1RK      -0.113000
     25 C11         -0.6570     1.7250    -0.6080 ca         1 1RK       0.088100
     26 O10         -0.4700     0.7930    -1.6010 os         1 1RK      -0.339100
     27 C9          -1.4430    -0.2600    -1.8020 c6         1 1RK       0.188000
     28 C22         -0.7640    -1.3590    -2.6710 c6         1 1RK      -0.119400
     29 C23         -0.4480    -0.8370    -4.0920 c6         1 1RK       0.156600
     30 O24         -1.6570    -0.3530    -4.7130 os         1 1RK      -0.456000
     31 C25         -2.2660     0.7510    -4.0110 c6         1 1RK       0.156600
     32 C26         -2.6680     0.3070    -2.5850 c6         1 1RK      -0.119400
     33 C7          -1.8440    -0.8540    -0.3990 c3         1 1RK       0.006700
     34 N6          -2.8740    -0.0590     0.3300 ns         1 1RK      -0.502900
     35 C5          -4.2300    -0.3210     0.3370 c          1 1RK       0.603100
     36 O8          -4.7010    -1.3010    -0.2290 o          1 1RK      -0.583100
     37 C3          -5.1050     0.7270     1.1120 c3         1 1RK       0.099500
     38 C4          -5.8310     0.0560     2.3020 c3         1 1RK      -0.129100
     39 N1          -6.0900     1.4330     0.2280 n7         1 1RK      -0.856400
     40 C2          -6.7810     2.6100     0.7930 c3         1 1RK       0.152100
     41 H1           1.6060    -4.7340     3.3980 h1         1 1RK       0.030367
     42 H2           2.6980    -3.9780     4.5910 h1         1 1RK       0.030367
     43 H3           0.9430    -3.9680     4.8570 h1         1 1RK       0.030367
     44 H4           3.7050    -4.0750     2.4560 ha         1 1RK       0.101000
     45 H5           5.1990    -3.4020     0.6400 ha         1 1RK       0.106000
     46 H6           5.8970    -1.8250    -1.0250 ha         1 1RK       0.128000
     47 H8           3.8010     1.9260    -1.5030 ha         1 1RK       0.128000
     48 H9           2.2750     1.3150     0.2860 ha         1 1RK       0.092000
     49 H10          0.5780    -0.5490     3.0200 h1         1 1RK       0.053700
     50 H11          1.4800     0.8240     2.4180 h1         1 1RK       0.053700
     51 H12         -0.4380     2.1080     2.7810 ha         1 1RK       0.120000
     52 H13         -1.2650     4.3630     2.1830 ha         1 1RK       0.110000
     53 H14         -1.6950     4.9550    -0.1990 ha         1 1RK       0.113000
     54 H15         -1.3330     3.2500    -1.9840 ha         1 1RK       0.128000
     55 H16          0.1640    -1.7030    -2.1950 hc         1 1RK       0.062700
     56 H17         -1.4180    -2.2370    -2.7500 hc         1 1RK       0.062700
     57 H18          0.2940    -0.0260    -4.0510 h1         1 1RK       0.056200
     58 H19         -0.0310    -1.6490    -4.7060 h1         1 1RK       0.056200
     59 H20         -1.5580     1.5930    -3.9690 h1         1 1RK       0.056200
     60 H21         -3.1550     1.0820    -4.5660 h1         1 1RK       0.056200
     61 H22         -3.4510    -0.4580    -2.6580 hc         1 1RK       0.062700
     62 H23         -3.1130     1.1590    -2.0550 hc         1 1RK       0.062700
     63 H24         -2.2660    -1.8500    -0.5800 h1         1 1RK       0.100700
     64 H25         -2.5770     0.7880     0.8040 hn         1 1RK       0.319500
     65 H26         -4.4040     1.4650     1.5280 h1         1 1RK       0.059700
     66 H27         -6.3230     0.7980     2.9410 hc         1 1RK       0.045700
     67 H28         -6.5860    -0.6580     1.9500 hc         1 1RK       0.045700
     68 H29         -5.1120    -0.4910     2.9240 hc         1 1RK       0.045700
     69 H30         -6.7920     0.7530    -0.0950 hn         1 1RK       0.432000
     70 H32         -7.4400     2.3250     1.6240 h1         1 1RK       0.026367
     71 H33         -6.0560     3.3480     1.1630 h1         1 1RK       0.026367
     72 H34         -7.3990     3.0950     0.0260 h1         1 1RK       0.026367
@<TRIPOS>BOND
     1     1     2 1   
     2     1    41 1   
     3     1    42 1   
     4     1    43 1   
     5     2     3 1   
     6     3     4 ar  
     7     3    15 ar  
     8     4     5 ar  
     9     4    44 1   
    10     5     6 ar  
    11     5    45 1   
    12     6     7 ar  
    13     6    14 ar  
    14     7     8 ar  
    15     7    46 1   
    16     8     9 1   
    17     8    12 ar  
    18     9    10 1   
    19     9    11 1   
    20    12    13 ar  
    21    12    47 1   
    22    13    14 ar  
    23    13    48 1   
    24    14    15 ar  
    25    15    16 1   
    26    16    17 1   
    27    16    49 1   
    28    16    50 1   
    29    17    18 1   
    30    17    20 1   
    31    18    19 2   
    32    18    33 1   
    33    20    21 ar  
    34    20    25 ar  
    35    21    22 ar  
    36    21    51 1   
    37    22    23 ar  
    38    22    52 1   
    39    23    24 ar  
    40    23    53 1   
    41    24    25 ar  
    42    24    54 1   
    43    25    26 1   
    44    26    27 1   
    45    27    28 1   
    46    27    32 1   
    47    27    33 1   
    48    28    29 1   
    49    28    55 1   
    50    28    56 1   
    51    29    30 1   
    52    29    57 1   
    53    29    58 1   
    54    30    31 1   
    55    31    32 1   
    56    31    59 1   
    57    31    60 1   
    58    32    61 1   
    59    32    62 1   
    60    33    34 1   
    61    33    63 1   
    62    34    35 1   
    63    34    64 1   
    64    35    36 2   
    65    35    37 1   
    66    37    38 1   
    67    37    39 1   
    68    37    65 1   
    69    38    66 1   
    70    38    67 1   
    71    38    68 1   
    72    39    40 1   
    73    39    69 1   
    74    40    70 1   
    75    40    71 1   
    76    40    72 1   
@<TRIPOS>SUBSTRUCTURE
     1 1RK         1 TEMP              0 ****  ****    0 ROOT
