@<TRIPOS>MOLECULE
1RK
   72    76     1     0     0
SMALL
abcg2


@<TRIPOS>ATOM
      1 C29          1.0850    -4.1940     3.5700 c3         1 1RK       0.161900
      2 O28          1.0520    -2.8640     3.0950 os         1 1RK      -0.349100
      3 C27          1.9310    -2.4670     2.1580 ca         1 1RK       0.160100
      4 C30          2.9700    -3.3120     1.7040 ca         1 1RK      -0.216000
      5 C31          3.8540    -2.8700     0.7620 ca         1 1RK      -0.044000
      6 C32          3.7700    -1.5630     0.2410 ca         1 1RK      -0.084000
      7 C34          4.7000    -1.0980    -0.7160 ca         1 1RK      -0.083000
      8 C35          4.6470     0.1780    -1.2120 ca         1 1RK      -0.141600
      9 C38          5.6550     0.6680    -2.2390 c          1 1RK       0.712600
     10 O40          6.5200    -0.1480    -2.6120 o          1 1RK      -0.720500
     11 O39          5.5300     1.8480    -2.6230 o          1 1RK      -0.720500
     12 C36          3.6310     1.0340    -0.7290 ca         1 1RK      -0.043000
     13 C37          2.7100     0.6120     0.1890 ca         1 1RK      -0.166000
     14 C33          2.7340    -0.7090     0.7050 ca         1 1RK       0.009000
     15 C15          1.7900    -1.1870     1.6520 ca         1 1RK      -0.151300
     16 C14          0.6540    -0.3080     2.1110 c3         1 1RK       0.177300
     17 N13         -0.3070     0.0220     1.0480 n          1 1RK      -0.220400
     18 C16         -0.9430    -0.9930     0.4070 c          1 1RK       0.566000
     19 O17         -0.7300    -2.1590     0.6700 o          1 1RK      -0.508000
     20 C12         -0.5360     1.3720     0.7150 ca         1 1RK      -0.039000
     21 C21         -0.7520     2.3260     1.7030 ca         1 1RK      -0.134000
     22 C19         -0.9490     3.6580     1.3660 ca         1 1RK      -0.109000
     23 C20         -0.9400     4.0470     0.0350 ca         1 1RK      -0.121000
     24 C18         -0.7290     3.1020    -0.9600 ca         1 1RK      -0.113000
     25 C11         -0.5110     1.7740    -0.6250 ca         1 1RK       0.088100
     26 O10         -0.2260     0.8660    -1.5890 os         1 1RK      -0.339100
     27 C9          -1.2360    -0.0880    -1.9350 c6         1 1RK       0.188000
     28 C22         -0.4820    -1.2350    -2.6110 c6         1 1RK      -0.119400
     29 C23          0.1210    -0.7990    -3.9370 c6         1 1RK       0.156600
     30 O24         -0.8600    -0.2840    -4.8100 os         1 1RK      -0.456000
     31 C25         -1.5100     0.8390    -4.2620 c6         1 1RK       0.156600
     32 C26         -2.2100     0.5180    -2.9480 c6         1 1RK      -0.119400
     33 C7          -1.9600    -0.6170    -0.6780 c3         1 1RK       0.006700
     34 N6          -3.0110     0.2510    -0.1970 ns         1 1RK      -0.502900
     35 C5          -3.9580    -0.1930     0.6530 c          1 1RK       0.603100
     36 O8          -3.9860    -1.3430     1.0610 o          1 1RK      -0.583100
     37 C3          -4.9610     0.8550     1.1120 c3         1 1RK       0.099500
     38 C4          -4.4450     1.4760     2.4150 c3         1 1RK      -0.129100
     39 N1          -6.2660     0.2350     1.1920 n7         1 1RK      -0.856400
     40 C2          -7.3560     1.1680     1.3880 c3         1 1RK       0.152100
     41 H1           0.9330    -4.9220     2.7690 h1         1 1RK       0.030367
     42 H2           2.0180    -4.4260     4.0890 h1         1 1RK       0.030367
     43 H3           0.2660    -4.2840     4.2800 h1         1 1RK       0.030367
     44 H4           3.0750    -4.3170     2.0880 ha         1 1RK       0.101000
     45 H5           4.6380    -3.5290     0.4100 ha         1 1RK       0.106000
     46 H6           5.4720    -1.7770    -1.0590 ha         1 1RK       0.128000
     47 H8           3.5860     2.0500    -1.0960 ha         1 1RK       0.128000
     48 H9           1.9690     1.3180     0.5340 ha         1 1RK       0.092000
     49 H10          0.1220    -0.7680     2.9420 h1         1 1RK       0.053700
     50 H11          1.0490     0.6370     2.4830 h1         1 1RK       0.053700
     51 H12         -0.7780     2.0260     2.7430 ha         1 1RK       0.120000
     52 H13         -1.1150     4.3860     2.1480 ha         1 1RK       0.110000
     53 H14         -1.1000     5.0830    -0.2320 ha         1 1RK       0.113000
     54 H15         -0.7070     3.3950    -2.0030 ha         1 1RK       0.128000
     55 H16          0.3110    -1.6130    -1.9620 hc         1 1RK       0.062700
     56 H17         -1.1810    -2.0560    -2.7860 hc         1 1RK       0.062700
     57 H18          0.9180    -0.0630    -3.7700 h1         1 1RK       0.056200
     58 H19          0.5730    -1.6590    -4.4330 h1         1 1RK       0.056200
     59 H20         -0.7980     1.6620    -4.1120 h1         1 1RK       0.056200
     60 H21         -2.2450     1.1750    -4.9950 h1         1 1RK       0.056200
     61 H22         -3.0240    -0.1910    -3.1190 hc         1 1RK       0.062700
     62 H23         -2.6690     1.4390    -2.5770 hc         1 1RK       0.062700
     63 H24         -2.4280    -1.5600    -0.9670 h1         1 1RK       0.100700
     64 H25         -3.0340     1.2200    -0.4700 hn         1 1RK       0.319500
     65 H26         -5.0240     1.6450     0.3550 h1         1 1RK       0.059700
     66 H27         -5.1170     2.2580     2.7690 hc         1 1RK       0.045700
     67 H28         -4.3600     0.7190     3.1960 hc         1 1RK       0.045700
     68 H29         -3.4630     1.9310     2.2780 hc         1 1RK       0.045700
     69 H30         -6.2670    -0.4580     1.9300 hn         1 1RK       0.432000
     70 H32         -7.2980     1.7740     2.3000 h1         1 1RK       0.026367
     71 H33         -7.4100     1.8550     0.5410 h1         1 1RK       0.026367
     72 H34         -8.2970     0.6190     1.4210 h1         1 1RK       0.026367
@<TRIPOS>BOND
     1     1     2 1   
     2     1    41 1   
     3     1    42 1   
     4     1    43 1   
     5     2     3 1   
     6     3     4 ar  
     7     3    15 ar  
     8     4     5 ar  
     9     4    44 1   
    10     5     6 ar  
    11     5    45 1   
    12     6     7 ar  
    13     6    14 ar  
    14     7     8 ar  
    15     7    46 1   
    16     8     9 1   
    17     8    12 ar  
    18     9    10 1   
    19     9    11 1   
    20    12    13 ar  
    21    12    47 1   
    22    13    14 ar  
    23    13    48 1   
    24    14    15 ar  
    25    15    16 1   
    26    16    17 1   
    27    16    49 1   
    28    16    50 1   
    29    17    18 1   
    30    17    20 1   
    31    18    19 2   
    32    18    33 1   
    33    20    21 ar  
    34    20    25 ar  
    35    21    22 ar  
    36    21    51 1   
    37    22    23 ar  
    38    22    52 1   
    39    23    24 ar  
    40    23    53 1   
    41    24    25 ar  
    42    24    54 1   
    43    25    26 1   
    44    26    27 1   
    45    27    28 1   
    46    27    32 1   
    47    27    33 1   
    48    28    29 1   
    49    28    55 1   
    50    28    56 1   
    51    29    30 1   
    52    29    57 1   
    53    29    58 1   
    54    30    31 1   
    55    31    32 1   
    56    31    59 1   
    57    31    60 1   
    58    32    61 1   
    59    32    62 1   
    60    33    34 1   
    61    33    63 1   
    62    34    35 1   
    63    34    64 1   
    64    35    36 2   
    65    35    37 1   
    66    37    38 1   
    67    37    39 1   
    68    37    65 1   
    69    38    66 1   
    70    38    67 1   
    71    38    68 1   
    72    39    40 1   
    73    39    69 1   
    74    40    70 1   
    75    40    71 1   
    76    40    72 1   
@<TRIPOS>SUBSTRUCTURE
     1 1RK         1 TEMP              0 ****  ****    0 ROOT
