@<TRIPOS>MOLECULE
1RL
  126   131     1     0     0
SMALL
No Charge or Current Charge


@<TRIPOS>ATOM
      1 C1         113.0890    26.7270     9.6950 c          1 1RL       0.620900
      2 C2        -112.0650    26.6580     8.6210 cc         1 1RL      -0.085600
      3 C3         110.7410    26.9660     8.8800 cd         1 1RL       0.163000
      4 C4        -110.3630    27.5460    10.1510 cd         1 1RL       0.328500
      5 C5         111.2030    28.9750    12.1280 ca         1 1RL      -0.297600
      6 C6        -112.2110    29.3120    13.0190 ca         1 1RL       0.221100
      7 C7         113.4880    28.7510    12.9310 ca         1 1RL      -0.181300
      8 C8        -113.7510    27.8730    11.8640 ca         1 1RL       0.283100
      9 C9         112.7440    27.5360    10.9240 ca         1 1RL      -0.326600
     10 C10       -111.4220    28.0370    11.0780 ca         1 1RL       0.060500
     11 C11        110.0340    29.8580    12.4130 c          1 1RL       0.564700
     12 C12       -110.4830    30.5430    13.7520 c5         1 1RL       0.278000
     13 C13        109.7550    29.8840    14.9440 c3         1 1RL      -0.083100
     14 C14       -114.5860    29.1460    13.9220 c3         1 1RL      -0.022800
     15 C15        112.2180    26.7210     6.1350 c          1 1RL       0.620300
     16 C16       -112.8040    26.0020     4.9260 ce         1 1RL      -0.183400
     17 C17        112.7250    26.4560     3.6270 cf         1 1RL      -0.123000
     18 C18       -112.0760    27.6640     3.1210 cf         1 1RL      -0.181000
     19 C19        110.7840    27.9940     3.3430 c2         1 1RL      -0.188200
     20 C20       -110.1060    29.3100     2.9800 c3         1 1RL      -0.027500
     21 C21        110.5320    30.3930     4.0280 c3         1 1RL       0.190300
     22 C22       -109.6840    31.7010     4.1420 c3         1 1RL      -0.091700
     23 C23        110.1330    32.6060     5.3470 c3         1 1RL       0.178300
     24 C24       -110.1870    31.9150     6.7570 c3         1 1RL      -0.113700
     25 C25        110.7730    32.8280     7.9010 c3         1 1RL       0.181300
     26 C26       -111.0410    32.1030     9.2630 c3         1 1RL      -0.054700
     27 C27        111.5460    33.0770    10.3740 c3         1 1RL       0.217500
     28 C28       -111.4430    32.4390    11.7470 c2         1 1RL      -0.315200
     29 C29        110.4500    32.6750    12.6270 c2         1 1RL      -0.020900
     30 C30       -113.5560    24.7000     5.2050 c3         1 1RL      -0.047900
     31 C31        108.5760    29.0770     2.9080 c3         1 1RL      -0.087100
     32 C32       -109.6240    32.5110     2.8150 c3         1 1RL      -0.079100
     33 C33        108.8180    31.2760     7.1430 c3         1 1RL      -0.085100
     34 C34       -111.9800    30.8700     9.0920 c3         1 1RL      -0.089100
     35 C36        108.8940    36.0790     7.9020 c3         1 1RL      -0.157100
     36 N1        -112.5010    26.1680     7.3740 ns         1 1RL      -0.424100
     37 O01        109.7850    26.5880     7.9830 os         1 1RL      -0.276000
     38 C01       -108.4740    26.6580     8.3430 ca         1 1RL       0.201000
     39 C02        108.1330    27.1630     9.6180 ca         1 1RL       0.105000
     40 N3        -109.0890    27.6120    10.5650 nc         1 1RL      -0.529000
     41 O1         114.2010    26.2240     9.5620 o          1 1RL      -0.568100
     42 O2        -115.0140    27.3810    11.7260 oh         1 1RL      -0.538100
     43 O3         111.9050    30.2960    13.9320 os         1 1RL      -0.331100
     44 O4        -109.0960    30.1390    11.6750 o          1 1RL      -0.460100
     45 O5         110.2030    31.9870    13.8040 os         1 1RL      -0.332100
     46 O6        -112.9230    33.3990    10.1140 os         1 1RL      -0.444000
     47 O7         109.8380    33.8990     8.1610 os         1 1RL      -0.458100
     48 O8        -110.8650    35.3480     6.6960 o          1 1RL      -0.508000
     49 O9         111.4240    33.1570     5.0560 oh         1 1RL      -0.684000
     50 O10       -111.8880    30.7900     3.8090 oh         1 1RL      -0.662000
     51 O11        111.5850    27.7620     6.0680 o          1 1RL      -0.554100
     52 C03       -107.4980    26.2170     7.4380 ca         1 1RL      -0.182000
     53 C04        106.1430    26.2670     7.7890 ca         1 1RL      -0.003000
     54 C05       -105.7710    26.7650     9.0470 ca         1 1RL      -0.252000
     55 C06        106.7550    27.2170     9.9550 ca         1 1RL       0.256100
     56 O         -106.4090    27.7360    11.1900 os         1 1RL      -0.294100
     57 C07        105.1170    27.5440    11.7900 c3         1 1RL       0.156600
     58 C08       -105.1210    28.1990    13.1980 c3         1 1RL       0.186800
     59 N          105.8150    27.4720    14.3140 n3         1 1RL      -0.754600
     60 C09       -105.5390    28.1100    15.6280 c3         1 1RL       0.181300
     61 C38        105.8530    27.2200    16.8500 c3         1 1RL      -0.087100
     62 C39       -107.2650    27.2160    14.0730 c3         1 1RL       0.181300
     63 C          107.5630    25.8080    13.5230 c3         1 1RL      -0.087100
     64 H131      -110.0680    30.3340    15.8920 hc         1 1RL       0.063700
     65 H132       109.9680    28.8100    14.9950 hc         1 1RL       0.063700
     66 H133      -108.6690    30.0060    14.8550 hc         1 1RL       0.063700
     67 H143       115.1640    28.2730    14.2480 hc         1 1RL       0.050700
     68 H141      -114.1820    29.6120    14.8280 hc         1 1RL       0.050700
     69 H142       115.2850    29.8590    13.4670 hc         1 1RL       0.050700
     70 H171      -113.2520    25.8800     2.8620 ha         1 1RL       0.176000
     71 H181       112.7020    28.3440     2.5370 ha         1 1RL       0.187000
     72 H191      -110.1630    27.3070     3.9200 ha         1 1RL       0.162000
     73 H201       110.4390    29.6340     1.9850 hc         1 1RL       0.067700
     74 H211      -110.4560    29.8880     4.9970 h1         1 1RL       0.029700
     75 H221       108.6500    31.4050     4.3490 hc         1 1RL       0.050700
     76 H231      -109.4020    33.4230     5.4090 h1         1 1RL       0.028700
     77 H241       110.9010    31.0940     6.6590 hc         1 1RL       0.083700
     78 H251      -111.7480    33.2230     7.5830 h1         1 1RL       0.083700
     79 H261       110.0800    31.7290     9.6290 hc         1 1RL       0.066700
     80 H271      -110.9340    33.9890    10.3640 h1         1 1RL       0.037700
     81 H281       112.2440    31.7360    11.9530 ha         1 1RL       0.201000
     82 H291      -109.6720    33.4110    12.4120 h4         1 1RL       0.201000
     83 H302       114.4630    24.8790     5.7950 hc         1 1RL       0.045700
     84 H303      -113.8720    24.1980     4.2830 hc         1 1RL       0.045700
     85 H301       112.9300    23.9830     5.7520 hc         1 1RL       0.045700
     86 H313      -108.0490    29.9600     2.5300 hc         1 1RL       0.032033
     87 H312       108.1710    28.8320     3.8980 hc         1 1RL       0.032033
     88 H311      -108.3470    28.2460     2.2310 hc         1 1RL       0.032033
     89 H323       108.9860    33.3950     2.9340 hc         1 1RL       0.038033
     90 H321      -109.2080    31.9110     1.9980 hc         1 1RL       0.038033
     91 H322       110.6180    32.8520     2.5030 hc         1 1RL       0.038033
     92 H331      -108.8770    30.7320     8.0920 hc         1 1RL       0.037033
     93 H333       108.4930    30.5420     6.3980 hc         1 1RL       0.037033
     94 H332      -108.0390    32.0420     7.2330 hc         1 1RL       0.037033
     95 H341       112.3210    30.4820    10.0550 hc         1 1RL       0.046033
     96 H343      -112.8710    31.1350     8.5100 hc         1 1RL       0.046033
     97 H342       111.4660    30.0490     8.5790 hc         1 1RL       0.046033
     98 H362      -108.9900    37.0420     7.3890 hc         1 1RL       0.069033
     99 H361       108.9040    36.1930     8.9920 hc         1 1RL       0.069033
    100 H363      -107.9170    35.6160     7.7260 hc         1 1RL       0.069033
    101 H373       114.5100    34.6580    10.6280 h1         1 1RL       0.030367
    102 H371      -113.4660    34.1880    11.9850 h1         1 1RL       0.030367
    103 H372       112.8960    35.3830    10.7920 h1         1 1RL       0.030367
    104 H11       -113.2450    25.4810     7.3610 hn         1 1RL       0.329500
    105 H21        115.0010    26.8240    10.9060 ho         1 1RL       0.533000
    106 H91       -111.4400    34.0430     5.4990 ho         1 1RL       0.476000
    107 H101       111.9270    31.6960     4.2190 ho         1 1RL       0.473000
    108 H031      -107.7960    25.8330     6.4650 ha         1 1RL       0.144000
    109 H041       105.3830    25.9240     7.0880 ha         1 1RL       0.123000
    110 H051      -104.7150    26.8060     9.2970 ha         1 1RL       0.131000
    111 H072       104.8710    26.4780    11.8780 h1         1 1RL       0.046700
    112 H071      -104.3430    28.0310    11.1830 h1         1 1RL       0.046700
    113 H081       104.0660    28.3300    13.4730 h1         1 1RL       0.045200
    114 H082      -105.5380    29.2110    13.1000 h1         1 1RL       0.045200
    115 H092       104.4730    28.3690    15.6910 h1         1 1RL       0.031200
    116 H091      -106.1020    29.0490    15.7170 h1         1 1RL       0.031200
    117 H382       105.5180    27.7160    17.7690 hc         1 1RL       0.036533
    118 H383      -106.9260    27.0240    16.9480 hc         1 1RL       0.036533
    119 H381       105.3290    26.2600    16.7700 hc         1 1RL       0.036533
    120 H391      -107.6780    27.9670    13.3860 h1         1 1RL       0.031200
    121 H392       107.8420    27.3220    15.0000 h1         1 1RL       0.031200
    122 HC2       -108.6390    25.6930    13.3490 hc         1 1RL       0.036533
    123 HC1        107.0440    25.6170    12.5790 hc         1 1RL       0.036533
    124 HC3       -107.2500    25.0450    14.2450 hc         1 1RL       0.036533
    125 C35        109.9800    35.0930     7.5030 c          1 1RL       0.603100
    126 C37       -113.4710    34.4570    10.9210 c3         1 1RL       0.145900
@<TRIPOS>BOND
     1     1     2 1   
     2     1     9 1   
     3     1    41 2   
     4     2     3 2   
     5     2    36 1   
     6     3     4 1   
     7     3    37 1   
     8     4    10 1   
     9     4    40 2   
    10     5     6 ar  
    11     5    10 ar  
    12     5    11 1   
    13     6     7 ar  
    14     6    43 1   
    15     7     8 ar  
    16     7    14 1   
    17     8     9 ar  
    18     8    42 1   
    19     9    10 ar  
    20    11    12 1   
    21    11    44 2   
    22    12    13 1   
    23    12    43 1   
    24    12    45 1   
    25    13    64 1   
    26    13    65 1   
    27    13    66 1   
    28    14    67 1   
    29    14    68 1   
    30    14    69 1   
    31    15    16 1   
    32    15    36 1   
    33    15    51 2   
    34    16    17 2   
    35    16    30 1   
    36    17    18 1   
    37    17    70 1   
    38    18    19 2   
    39    18    71 1   
    40    19    20 1   
    41    19    72 1   
    42    20    21 1   
    43    20    31 1   
    44    20    73 1   
    45    21    22 1   
    46    21    50 1   
    47    21    74 1   
    48    22    23 1   
    49    22    32 1   
    50    22    75 1   
    51    23    24 1   
    52    23    49 1   
    53    23    76 1   
    54    24    25 1   
    55    24    33 1   
    56    24    77 1   
    57    25    26 1   
    58    25    47 1   
    59    25    78 1   
    60    26    27 1   
    61    26    34 1   
    62    26    79 1   
    63    27    28 1   
    64    27    46 1   
    65    27    80 1   
    66    28    29 2   
    67    28    81 1   
    68    29    45 1   
    69    29    82 1   
    70    30    83 1   
    71    30    84 1   
    72    30    85 1   
    73    31    86 1   
    74    31    87 1   
    75    31    88 1   
    76    32    89 1   
    77    32    90 1   
    78    32    91 1   
    79    33    92 1   
    80    33    93 1   
    81    33    94 1   
    82    34    95 1   
    83    34    96 1   
    84    34    97 1   
    85    35    98 1   
    86    35    99 1   
    87    35   100 1   
    88    35   125 1   
    89    36   104 1   
    90    37    38 1   
    91    38    39 ar  
    92    38    52 ar  
    93    39    40 1   
    94    39    55 ar  
    95    42   105 1   
    96    46   126 1   
    97    47   125 1   
    98    48   125 2   
    99    49   106 1   
   100    50   107 1   
   101    52    53 ar  
   102    52   108 1   
   103    53    54 ar  
   104    53   109 1   
   105    54    55 ar  
   106    54   110 1   
   107    55    56 1   
   108    56    57 1   
   109    57    58 1   
   110    57   111 1   
   111    57   112 1   
   112    58    59 1   
   113    58   113 1   
   114    58   114 1   
   115    59    60 1   
   116    59    62 1   
   117    60    61 1   
   118    60   115 1   
   119    60   116 1   
   120    61   117 1   
   121    61   118 1   
   122    61   119 1   
   123    62    63 1   
   124    62   120 1   
   125    62   121 1   
   126    63   122 1   
   127    63   123 1   
   128    63   124 1   
   129   101   126 1   
   130   102   126 1   
   131   103   126 1   
@<TRIPOS>SUBSTRUCTURE
     1 1RL         1 TEMP              0 ****  ****    0 ROOT
