@<TRIPOS>MOLECULE
1RL
  126   131     1     0     0
SMALL
bcc


@<TRIPOS>ATOM
      1 C1        -112.8740    27.0480     9.2470 c          1 1RL       0.620900
      2 C2        -111.8000    26.8930     8.2900 cc         1 1RL      -0.085600
      3 C3        -110.5510    27.2870     8.6290 cd         1 1RL       0.207400
      4 C4        -110.2280    27.8810     9.9150 cd         1 1RL       0.328500
      5 C5        -111.1660    29.0420    11.9400 ca         1 1RL      -0.297600
      6 C6        -112.2780    29.2730    12.7640 ca         1 1RL       0.221100
      7 C7        -113.5420    28.7610    12.5480 ca         1 1RL      -0.181300
      8 C8        -113.6940    28.0080    11.3810 ca         1 1RL       0.283100
      9 C9        -112.6050    27.7650    10.4950 ca         1 1RL      -0.326600
     10 C10       -111.3260    28.2460    10.7980 ca         1 1RL       0.060500
     11 C11       -110.1150    29.9220    12.4360 c          1 1RL       0.564700
     12 C12       -110.6710    30.5200    13.7540 c5         1 1RL       0.231600
     13 C13       -109.9440    29.9590    14.9560 c3         1 1RL      -0.083100
     14 C14       -114.7050    29.0200    13.4530 c3         1 1RL      -0.022800
     15 C15       -112.9060    26.8480     6.1550 c          1 1RL       0.687300
     16 C16       -113.2730    25.9510     5.0100 ce         1 1RL      -0.183400
     17 C17       -112.9020    26.2050     3.7500 cf         1 1RL      -0.073000
     18 C18       -112.0180    27.2780     3.3000 cf         1 1RL      -0.131000
     19 C19       -110.9240    27.6780     3.9440 c2         1 1RL      -0.138200
     20 C20       -110.0690    28.8570     3.5910 c3         1 1RL      -0.027500
     21 C21       -110.5300    30.0160     4.4950 c3         1 1RL       0.167100
     22 C22       -109.5730    31.2150     4.5650 c3         1 1RL      -0.091700
     23 C23       -110.0130    32.2590     5.6100 c3         1 1RL       0.155100
     24 C24       -110.2510    31.6610     7.0130 c3         1 1RL      -0.113700
     25 C25       -110.8150    32.6890     8.0070 c3         1 1RL       0.158100
     26 C26       -111.2460    32.0710     9.3440 c3         1 1RL      -0.054700
     27 C27       -111.6030    33.1320    10.4000 c3         1 1RL       0.194300
     28 C28       -111.7260    32.4660    11.7420 c2         1 1RL      -0.265200
     29 C29       -110.7620    32.6160    12.6420 c2         1 1RL       0.029100
     30 C30       -114.1500    24.7900     5.3820 c3         1 1RL      -0.047900
     31 C31       -108.5970    28.5020     3.7840 c3         1 1RL      -0.087100
     32 C32       -109.3470    31.8710     3.2050 c3         1 1RL      -0.079100
     33 C33       -108.9850    30.9830     7.5330 c3         1 1RL      -0.085100
     34 C34       -112.3950    31.0900     9.1100 c3         1 1RL      -0.089100
     35 C36       -108.7880    35.7810     8.2500 c3         1 1RL      -0.157100
     36 N1        -112.0740    26.2760     7.0660 ns         1 1RL      -0.491100
     37 O01       -109.5520    27.0790     7.7650 os         1 1RL      -0.364800
     38 C01       -108.2640    27.2570     8.1400 ca         1 1RL       0.310700
     39 C02       -107.9990    27.7240     9.4310 ca         1 1RL       0.170300
     40 N3        -109.0060    28.0470    10.2850 nc         1 1RL      -0.529000
     41 O1        -113.9970    26.5880     9.0000 o          1 1RL      -0.568100
     42 O2        -114.8950    27.5340    11.1230 oh         1 1RL      -0.499100
     43 O3        -112.0340    30.1000    13.7900 os         1 1RL      -0.307900
     44 O4        -109.0390    30.2430    12.0040 o          1 1RL      -0.460100
     45 O5        -110.5930    31.9040    13.7980 os         1 1RL      -0.308900
     46 O6        -112.7750    33.7910     9.9920 os         1 1RL      -0.397600
     47 O7        -109.8100    33.6820     8.2890 os         1 1RL      -0.434900
     48 O8        -110.6650    35.1960     6.8750 o          1 1RL      -0.557000
     49 O9        -111.1750    32.9010     5.1200 oh         1 1RL      -0.621800
     50 O10       -111.8170    30.3920     4.0590 oh         1 1RL      -0.599800
     51 O11       -113.3580    27.9650     6.2980 o          1 1RL      -0.554100
     52 C03       -107.2660    26.9620     7.2340 ca         1 1RL      -0.265300
     53 C04       -105.9570    27.1360     7.6540 ca         1 1RL      -0.021000
     54 C05       -105.6370    27.5810     8.9340 ca         1 1RL      -0.270000
     55 C06       -106.6490    27.8750     9.8400 ca         1 1RL       0.190800
     56 O         -106.4660    28.2910    11.0800 os         1 1RL      -0.270900
     57 C07       -105.1510    28.3590    11.6180 c3         1 1RL       0.133400
     58 C08       -105.2300    28.6880    13.0930 c3         1 1RL       0.186800
     59 N         -105.7540    27.6100    13.9060 n3         1 1RL      -0.754600
     60 C09       -105.2010    27.6010    15.2520 c3         1 1RL       0.181300
     61 C38       -105.4440    26.2920    15.9830 c3         1 1RL      -0.087100
     62 C39       -107.2150    27.5090    13.8960 c3         1 1RL       0.181300
     63 C         -107.7260    26.1720    13.3840 c3         1 1RL      -0.087100
     64 H131      -110.3620    30.3620    15.8780 hc         1 1RL       0.063700
     65 H132      -110.0300    28.8730    14.9830 hc         1 1RL       0.063700
     66 H133      -108.8860    30.2120    14.9070 hc         1 1RL       0.063700
     67 H143      -115.1550    28.0860    13.7910 hc         1 1RL       0.050700
     68 H141      -114.4090    29.5830    14.3350 hc         1 1RL       0.050700
     69 H142      -115.4830    29.5890    12.9430 hc         1 1RL       0.050700
     70 H171      -113.3060    25.5590     2.9750 ha         1 1RL       0.126000
     71 H181      -112.2860    27.7580     2.3620 ha         1 1RL       0.137000
     72 H191      -110.6240    27.1580     4.8520 ha         1 1RL       0.112000
     73 H201      -110.2400    29.1400     2.5470 hc         1 1RL       0.067700
     74 H211      -110.5870    29.5820     5.5080 h1         1 1RL       0.029700
     75 H221      -108.6040    30.8420     4.9100 hc         1 1RL       0.050700
     76 H231      -109.1860    32.9830     5.6760 h1         1 1RL       0.028700
     77 H241      -111.0390    30.9090     6.9090 hc         1 1RL       0.083700
     78 H251      -111.6940    33.1740     7.5780 h1         1 1RL       0.083700
     79 H261      -110.4030    31.5240     9.7720 hc         1 1RL       0.066700
     80 H271      -110.7730    33.8520    10.4700 h1         1 1RL       0.037700
     81 H281      -112.5580    31.7880    11.8920 ha         1 1RL       0.151000
     82 H291      -109.9750    33.3520    12.5080 h4         1 1RL       0.151000
     83 H302      -115.0160    25.1190     5.9600 hc         1 1RL       0.045700
     84 H303      -114.5090    24.2740     4.4930 hc         1 1RL       0.045700
     85 H301      -113.6190    24.0620     6.0000 hc         1 1RL       0.045700
     86 H313      -107.9310    29.2870     3.4290 hc         1 1RL       0.032033
     87 H312      -108.3680    28.3220     4.8370 hc         1 1RL       0.032033
     88 H311      -108.3470    27.5930     3.2360 hc         1 1RL       0.032033
     89 H323      -108.6920    32.7390     3.2990 hc         1 1RL       0.038033
     90 H321      -108.8650    31.1790     2.5140 hc         1 1RL       0.038033
     91 H322      -110.2760    32.2020     2.7450 hc         1 1RL       0.038033
     92 H331      -109.0910    30.6270     8.5580 hc         1 1RL       0.037033
     93 H333      -108.7240    30.1110     6.9330 hc         1 1RL       0.037033
     94 H332      -108.1270    31.6560     7.5130 hc         1 1RL       0.037033
     95 H341      -112.8230    30.7400    10.0480 hc         1 1RL       0.046033
     96 H343      -113.1990    31.5410     8.5270 hc         1 1RL       0.046033
     97 H342      -112.0690    30.2000     8.5740 hc         1 1RL       0.046033
     98 H362      -108.9450    36.8000     7.9070 hc         1 1RL       0.069033
     99 H361      -108.7580    35.7620     9.3380 hc         1 1RL       0.069033
    100 H363      -107.8150    35.4390     7.8940 hc         1 1RL       0.069033
    101 H373      -113.9510    35.4060    10.3260 h1         1 1RL       0.030367
    102 H371      -113.2800    34.6950    11.8040 h1         1 1RL       0.030367
    103 H372      -112.2450    35.6590    10.7390 h1         1 1RL       0.030367
    104 H11       -111.6730    25.3700     6.8720 hn         1 1RL       0.329500
    105 H21       -114.8400    27.0410    10.2560 ho         1 1RL       0.494000
    106 H91       -111.2800    33.7420     5.5840 ho         1 1RL       0.437000
    107 H101      -112.0250    31.2530     4.4440 ho         1 1RL       0.434000
    108 H031      -107.5020    26.5920     6.2460 ha         1 1RL       0.162000
    109 H041      -105.1520    26.9100     6.9680 ha         1 1RL       0.141000
    110 H051      -104.5970    27.6930     9.2020 ha         1 1RL       0.149000
    111 H072      -104.6350    27.4030    11.4830 h1         1 1RL       0.046700
    112 H071      -104.5780    29.1360    11.1000 h1         1 1RL       0.046700
    113 H081      -104.1980    28.8830    13.3970 h1         1 1RL       0.045200
    114 H082      -105.7740    29.6360    13.2300 h1         1 1RL       0.045200
    115 H092      -104.1230    27.7620    15.1780 h1         1 1RL       0.031200
    116 H091      -105.5970    28.4310    15.8620 h1         1 1RL       0.031200
    117 H382      -104.9660    26.3190    16.9630 hc         1 1RL       0.036533
    118 H383      -106.5050    26.1010    16.1440 hc         1 1RL       0.036533
    119 H381      -105.0300    25.4510    15.4250 hc         1 1RL       0.036533
    120 H391      -107.6380    28.3030    13.2780 h1         1 1RL       0.031200
    121 H392      -107.6050    27.6850    14.9060 h1         1 1RL       0.031200
    122 HC2       -108.8170    26.1590    13.3800 hc         1 1RL       0.036533
    123 HC1       -107.3890    25.9910    12.3630 hc         1 1RL       0.036533
    124 HC3       -107.3810    25.3430    14.0040 hc         1 1RL       0.036533
    125 C35       -109.8610    34.8780     7.7230 c          1 1RL       0.652100
    126 C37       -113.0690    34.9350    10.7570 c3         1 1RL       0.122700
@<TRIPOS>BOND
     1     1     2 1   
     2     1     9 1   
     3     1    41 2   
     4     2     3 2   
     5     2    36 1   
     6     3     4 1   
     7     3    37 1   
     8     4    10 1   
     9     4    40 2   
    10     5     6 ar  
    11     5    10 ar  
    12     5    11 1   
    13     6     7 ar  
    14     6    43 1   
    15     7     8 ar  
    16     7    14 1   
    17     8     9 ar  
    18     8    42 1   
    19     9    10 ar  
    20    11    12 1   
    21    11    44 2   
    22    12    13 1   
    23    12    43 1   
    24    12    45 1   
    25    13    64 1   
    26    13    65 1   
    27    13    66 1   
    28    14    67 1   
    29    14    68 1   
    30    14    69 1   
    31    15    16 1   
    32    15    36 1   
    33    15    51 2   
    34    16    17 2   
    35    16    30 1   
    36    17    18 1   
    37    17    70 1   
    38    18    19 2   
    39    18    71 1   
    40    19    20 1   
    41    19    72 1   
    42    20    21 1   
    43    20    31 1   
    44    20    73 1   
    45    21    22 1   
    46    21    50 1   
    47    21    74 1   
    48    22    23 1   
    49    22    32 1   
    50    22    75 1   
    51    23    24 1   
    52    23    49 1   
    53    23    76 1   
    54    24    25 1   
    55    24    33 1   
    56    24    77 1   
    57    25    26 1   
    58    25    47 1   
    59    25    78 1   
    60    26    27 1   
    61    26    34 1   
    62    26    79 1   
    63    27    28 1   
    64    27    46 1   
    65    27    80 1   
    66    28    29 2   
    67    28    81 1   
    68    29    45 1   
    69    29    82 1   
    70    30    83 1   
    71    30    84 1   
    72    30    85 1   
    73    31    86 1   
    74    31    87 1   
    75    31    88 1   
    76    32    89 1   
    77    32    90 1   
    78    32    91 1   
    79    33    92 1   
    80    33    93 1   
    81    33    94 1   
    82    34    95 1   
    83    34    96 1   
    84    34    97 1   
    85    35    98 1   
    86    35    99 1   
    87    35   100 1   
    88    35   125 1   
    89    36   104 1   
    90    37    38 1   
    91    38    39 ar  
    92    38    52 ar  
    93    39    40 1   
    94    39    55 ar  
    95    42   105 1   
    96    46   126 1   
    97    47   125 1   
    98    48   125 2   
    99    49   106 1   
   100    50   107 1   
   101    52    53 ar  
   102    52   108 1   
   103    53    54 ar  
   104    53   109 1   
   105    54    55 ar  
   106    54   110 1   
   107    55    56 1   
   108    56    57 1   
   109    57    58 1   
   110    57   111 1   
   111    57   112 1   
   112    58    59 1   
   113    58   113 1   
   114    58   114 1   
   115    59    60 1   
   116    59    62 1   
   117    60    61 1   
   118    60   115 1   
   119    60   116 1   
   120    61   117 1   
   121    61   118 1   
   122    61   119 1   
   123    62    63 1   
   124    62   120 1   
   125    62   121 1   
   126    63   122 1   
   127    63   123 1   
   128    63   124 1   
   129   101   126 1   
   130   102   126 1   
   131   103   126 1   
@<TRIPOS>SUBSTRUCTURE
     1 1RL         1 TEMP              0 ****  ****    0 ROOT
