@<TRIPOS>MOLECULE
1RM
  145   152     1     0     0
SMALL
abcg2


@<TRIPOS>ATOM
      1 C1        -113.9160    25.8260     9.3120 c          1 1RM       0.628900
      2 C2        -112.7820    25.6900     8.4150 cc         1 1RM      -0.077600
      3 C3        -111.5650    26.1420     8.8100 cd         1 1RM       0.122000
      4 C4        -111.3410    26.8670    10.0410 cd         1 1RM       0.361500
      5 C5        -112.3410    27.7060    12.1520 ca         1 1RM      -0.305600
      6 C6        -113.4860    28.1570    12.8070 ca         1 1RM       0.224100
      7 C7        -114.7750    27.8310    12.4200 ca         1 1RM      -0.172300
      8 C8        -114.8730    26.9890    11.3050 ca         1 1RM       0.278100
      9 C9        -113.7340    26.6280    10.5280 ca         1 1RM      -0.318600
     10 C10       -112.4640    27.0230    10.9460 ca         1 1RM       0.045500
     11 C11       -111.2330    27.9810    13.0490 c          1 1RM       0.565700
     12 C12       -111.7960    29.0010    14.0660 c5         1 1RM       0.289000
     13 C13       -111.4640    28.6880    15.5010 c3         1 1RM      -0.075100
     14 C14       -115.9990    28.2800    13.1540 c3         1 1RM      -0.021800
     15 C15       -113.5840    25.9750     6.1910 c          1 1RM       0.602300
     16 C16       -112.8760    26.1400     4.8910 ce         1 1RM      -0.215400
     17 C17       -113.2370    27.2350     4.1990 cf         1 1RM      -0.098000
     18 C18       -112.4330    28.0420     3.2890 cf         1 1RM      -0.180000
     19 C19       -111.1770    28.3460     3.6240 c2         1 1RM      -0.199200
     20 C20       -110.3780    29.5440     3.2130 c3         1 1RM      -0.023500
     21 C21       -110.7540    30.6000     4.2850 c3         1 1RM       0.183300
     22 C22       -109.7430    31.7230     4.5530 c3         1 1RM      -0.126700
     23 C23       -110.0800    32.4780     5.8630 c3         1 1RM       0.173300
     24 C24       -110.2180    31.5710     7.0970 c3         1 1RM      -0.069700
     25 C25       -110.4670    32.3720     8.3820 c3         1 1RM       0.177300
     26 C26       -110.9640    31.5430     9.5850 c3         1 1RM      -0.059700
     27 C27       -111.3840    32.4950    10.7160 c3         1 1RM       0.220500
     28 C28       -111.6390    31.8530    12.0560 c2         1 1RM      -0.266200
     29 C29       -111.1960    30.6760    12.4720 c2         1 1RM      -0.041900
     30 C30       -111.6870    25.2880     4.5560 c3         1 1RM      -0.051900
     31 C31       -108.8920    29.2010     3.1780 c3         1 1RM      -0.084100
     32 C32       -109.6040    32.6940     3.3840 c3         1 1RM      -0.089100
     33 C33       -109.0370    30.6190     7.2450 c3         1 1RM      -0.087100
     34 C34       -112.1000    30.5970     9.1990 c3         1 1RM      -0.082100
     35 C36       -107.6850    34.6620     9.2580 c3         1 1RM      -0.159100
     36 N1        -112.9460    25.1650     7.1200 ns         1 1RM      -0.389100
     37 O01       -110.5190    25.9850     7.9860 os         1 1RM      -0.299000
     38 C01       -109.3420    26.6110     8.2240 ca         1 1RM       0.203000
     39 C02       -109.2270    27.4230     9.3580 ca         1 1RM       0.122000
     40 N3        -110.2490    27.5170    10.2530 nc         1 1RM      -0.556000
     41 O1        -115.0040    25.3020     9.0600 o          1 1RM      -0.534100
     42 O2        -116.0800    26.5840    10.9580 oh         1 1RM      -0.532100
     43 O3        -113.2170    28.9160    13.8810 os         1 1RM      -0.331100
     44 O4        -110.1340    27.5000    13.1270 o          1 1RM      -0.461100
     45 O5        -111.3700    30.2950    13.7820 os         1 1RM      -0.355100
     46 O6        -112.5460    33.1800    10.2930 os         1 1RM      -0.448000
     47 O7        -109.2240    32.9770     8.7850 os         1 1RM      -0.474100
     48 O8        -109.8750    35.0830     8.3640 o          1 1RM      -0.482000
     49 O9        -111.3070    33.1860     5.7380 oh         1 1RM      -0.671000
     50 O10       -112.0240    31.1030     3.9380 oh         1 1RM      -0.669000
     51 O11       -114.5630    26.6210     6.5080 o          1 1RM      -0.551100
     52 C03       -108.3200    26.4500     7.3120 ca         1 1RM      -0.174000
     53 C04       -107.1500    27.1550     7.5440 ca         1 1RM      -0.013000
     54 C05       -107.0020    28.0150     8.6280 ca         1 1RM      -0.243000
     55 C06       -108.0390    28.1750     9.5400 ca         1 1RM       0.239100
     56 O         -108.0200    29.0300    10.5600 os         1 1RM      -0.308100
     57 C07       -107.0060    30.0380    10.5700 c3         1 1RM       0.155600
     58 C08       -107.2110    30.9910    11.7320 c3         1 1RM      -0.074400
     59 C09       -106.6510    30.5220    13.0720 c3         1 1RM      -0.074400
     60 C38       -107.4180    29.3720    13.7100 c3         1 1RM       0.169800
     61 N01       -105.3080    27.5770    16.7430 n3         1 1RM      -0.760600
     62 C39       -104.1240    27.0510    16.1130 c3         1 1RM       0.197800
     63 C40       -103.8600    27.3190    14.6270 c3         1 1RM       0.037600
     64 C41       -106.5800    26.9580    16.4630 c6         1 1RM       0.194300
     65 C42       -107.2900    27.5050    15.2070 c6         1 1RM       0.136800
     66 N02       -106.7070    28.7730    14.8180 n3         1 1RM      -0.738600
     67 C43       -106.5410    29.6040    15.9870 c6         1 1RM       0.136800
     68 C44       -105.4100    29.0220    16.8510 c6         1 1RM       0.194300
     69 N03       -105.6120    24.7670    12.7630 nc         1 1RM      -0.675000
     70 C45       -105.7390    25.8500    11.9410 cc         1 1RM       0.218900
     71 C46       -105.1400    26.9380    12.5080 cd         1 1RM      -0.227000
     72 N         -104.6410    26.5120    13.7040 na         1 1RM      -0.146500
     73 C         -104.9460    25.2010    13.8060 cd         1 1RM       0.374400
     74 H01       -111.9070    29.4270    16.1690 hc         1 1RM       0.064367
     75 H02       -111.8390    27.7030    15.7750 hc         1 1RM       0.064367
     76 H03       -110.3840    28.6930    15.6400 hc         1 1RM       0.064367
     77 H06       -116.5500    27.4300    13.5590 hc         1 1RM       0.050033
     78 H04       -115.7490    28.9370    13.9830 hc         1 1RM       0.050033
     79 H05       -116.6770    28.8220    12.4950 hc         1 1RM       0.050033
     80 H07       -114.1760    27.7080     4.4710 ha         1 1RM       0.207000
     81 H08       -112.9480    28.6060     2.5180 ha         1 1RM       0.194000
     82 H09       -110.7340    27.8030     4.4580 ha         1 1RM       0.160000
     83 H10       -110.6920    29.9140     2.2320 hc         1 1RM       0.074700
     84 H11       -110.8290    30.0320     5.2250 h1         1 1RM       0.026700
     85 H12       -108.7630    31.2640     4.7130 hc         1 1RM       0.059700
     86 H13       -109.2570    33.1870     6.0320 h1         1 1RM       0.035700
     87 H14       -111.1210    30.9710     6.9510 hc         1 1RM       0.079700
     88 H15       -111.2080    33.1450     8.1760 h1         1 1RM       0.102700
     89 H16       -110.1260    30.9480     9.9580 hc         1 1RM       0.064700
     90 H17       -110.5730    33.2240    10.8740 h1         1 1RM       0.036700
     91 H18       -112.1950    32.4610    12.7650 ha         1 1RM       0.191000
     92 H19       -110.6130    30.0020    11.8470 h4         1 1RM       0.198000
     93 H20       -111.9320    24.2260     4.6220 hc         1 1RM       0.044700
     94 H22       -111.3540    25.4810     3.5380 hc         1 1RM       0.044700
     95 H21       -110.8320    25.4650     5.2130 hc         1 1RM       0.044700
     96 H23       -108.2850    30.0440     2.8510 hc         1 1RM       0.035033
     97 H24       -108.5260    28.8880     4.1590 hc         1 1RM       0.035033
     98 H25       -108.7100    28.3780     2.4860 hc         1 1RM       0.035033
     99 H28       -108.8900    33.4850     3.6200 hc         1 1RM       0.038700
    100 H27       -109.2360    32.1860     2.4920 hc         1 1RM       0.038700
    101 H26       -110.5490    33.1650     3.1140 hc         1 1RM       0.038700
    102 H29       -109.1010    30.0700     8.1810 hc         1 1RM       0.036367
    103 H30       -109.0070    29.8660     6.4580 hc         1 1RM       0.036367
    104 H31       -108.0800    31.1410     7.2360 hc         1 1RM       0.036367
    105 H34       -112.5730    30.1710    10.0830 hc         1 1RM       0.044700
    106 H32       -112.8730    31.0990     8.6170 hc         1 1RM       0.044700
    107 H33       -111.7330    29.7590     8.6060 hc         1 1RM       0.044700
    108 H36       -107.4960    35.7220     9.1120 hc         1 1RM       0.066700
    109 H35       -107.6200    34.4390    10.3240 hc         1 1RM       0.066700
    110 H37       -106.9090    34.0830     8.7590 hc         1 1RM       0.066700
    111 H40       -113.5570    34.9310    10.3580 h1         1 1RM       0.032033
    112 H39       -112.8020    34.5010    11.8960 h1         1 1RM       0.032033
    113 H38       -111.8040    35.1010    10.5580 h1         1 1RM       0.032033
    114 H41       -112.1600    24.6290     6.7810 hn         1 1RM       0.311500
    115 H42       -115.9810    25.9850    10.1720 ho         1 1RM       0.530000
    116 H43       -111.1570    33.9830     5.2200 ho         1 1RM       0.456000
    117 H44       -112.2130    31.8340     4.5410 ho         1 1RM       0.469000
    118 H45       -108.4330    25.8040     6.4530 ha         1 1RM       0.141000
    119 H46       -106.3280    27.0520     6.8480 ha         1 1RM       0.124000
    120 H64       -106.0780    28.5640     8.7270 ha         1 1RM       0.129000
    121 H53       -106.0120    29.5820    10.6370 h1         1 1RM       0.040200
    122 H54       -107.0500    30.5900     9.6250 h1         1 1RM       0.040200
    123 H48       -106.6970    31.9150    11.4530 hc         1 1RM       0.056200
    124 H47       -108.2690    31.2560    11.8140 hc         1 1RM       0.056200
    125 H50       -105.6080    30.2190    12.9360 hc         1 1RM       0.040200
    126 H49       -106.6290    31.3820    13.7460 hc         1 1RM       0.040200
    127 H52       -108.4280    29.7170    13.9940 h1         1 1RM       0.051700
    128 H51       -107.5730    28.5820    12.9750 h1         1 1RM       0.051700
    129 H3        -104.0820    25.9750    16.3050 h1         1 1RM       0.052700
    130 H56       -103.2590    27.4660    16.6370 h1         1 1RM       0.052700
    131 H57       -102.8000    27.1360    14.4360 h1         1 1RM       0.060700
    132 H55       -104.0680    28.3620    14.3950 h1         1 1RM       0.060700
    133 H59       -107.2290    27.1170    17.3310 h1         1 1RM       0.045200
    134 H58       -106.4470    25.8770    16.3870 h1         1 1RM       0.045200
    135 H61       -108.3670    27.6090    15.4280 h1         1 1RM       0.040450
    136 H60       -107.2180    26.8160    14.3630 h1         1 1RM       0.040450
    137 H63       -106.2790    30.6230    15.7010 h1         1 1RM       0.040450
    138 H62       -107.4770    29.6760    16.5690 h1         1 1RM       0.040450
    139 H2        -104.4610    29.4670    16.5440 h1         1 1RM       0.045200
    140 H1        -105.5700    29.3210    17.8940 h1         1 1RM       0.045200
    141 H66       -105.0300    27.9570    12.1780 h4         1 1RM       0.147000
    142 H         -104.6600    24.6000    14.6560 h5         1 1RM       0.050100
    143 C35       -109.0470    34.2940     8.7440 c          1 1RM       0.594100
    144 C37       -112.6730    34.4830    10.8080 c3         1 1RM       0.142900
    145 H65       -106.2550    25.7960    10.9950 h4         1 1RM       0.033100
@<TRIPOS>BOND
     1     1     2 1   
     2     1     9 1   
     3     1    41 2   
     4     2     3 2   
     5     2    36 1   
     6     3     4 1   
     7     3    37 1   
     8     4    10 1   
     9     4    40 2   
    10     5     6 ar  
    11     5    10 ar  
    12     5    11 1   
    13     6     7 ar  
    14     6    43 1   
    15     7     8 ar  
    16     7    14 1   
    17     8     9 ar  
    18     8    42 1   
    19     9    10 ar  
    20    11    12 1   
    21    11    44 2   
    22    12    13 1   
    23    12    43 1   
    24    12    45 1   
    25    13    74 1   
    26    13    75 1   
    27    13    76 1   
    28    14    77 1   
    29    14    78 1   
    30    14    79 1   
    31    15    16 1   
    32    15    36 1   
    33    15    51 2   
    34    16    17 2   
    35    16    30 1   
    36    17    18 1   
    37    17    80 1   
    38    18    19 2   
    39    18    81 1   
    40    19    20 1   
    41    19    82 1   
    42    20    21 1   
    43    20    31 1   
    44    20    83 1   
    45    21    22 1   
    46    21    50 1   
    47    21    84 1   
    48    22    23 1   
    49    22    32 1   
    50    22    85 1   
    51    23    24 1   
    52    23    49 1   
    53    23    86 1   
    54    24    25 1   
    55    24    33 1   
    56    24    87 1   
    57    25    26 1   
    58    25    47 1   
    59    25    88 1   
    60    26    27 1   
    61    26    34 1   
    62    26    89 1   
    63    27    28 1   
    64    27    46 1   
    65    27    90 1   
    66    28    29 2   
    67    28    91 1   
    68    29    45 1   
    69    29    92 1   
    70    30    93 1   
    71    30    94 1   
    72    30    95 1   
    73    31    96 1   
    74    31    97 1   
    75    31    98 1   
    76    32    99 1   
    77    32   100 1   
    78    32   101 1   
    79    33   102 1   
    80    33   103 1   
    81    33   104 1   
    82    34   105 1   
    83    34   106 1   
    84    34   107 1   
    85    35   108 1   
    86    35   109 1   
    87    35   110 1   
    88    35   143 1   
    89    36   114 1   
    90    37    38 1   
    91    38    39 ar  
    92    38    52 ar  
    93    39    40 1   
    94    39    55 ar  
    95    42   115 1   
    96    46   144 1   
    97    47   143 1   
    98    48   143 2   
    99    49   116 1   
   100    50   117 1   
   101    52    53 ar  
   102    52   118 1   
   103    53    54 ar  
   104    53   119 1   
   105    54    55 ar  
   106    54   120 1   
   107    55    56 1   
   108    56    57 1   
   109    57    58 1   
   110    57   121 1   
   111    57   122 1   
   112    58    59 1   
   113    58   123 1   
   114    58   124 1   
   115    59    60 1   
   116    59   125 1   
   117    59   126 1   
   118    60    66 1   
   119    60   127 1   
   120    60   128 1   
   121    61    62 1   
   122    61    64 1   
   123    61    68 1   
   124    62    63 1   
   125    62   129 1   
   126    62   130 1   
   127    63    72 1   
   128    63   131 1   
   129    63   132 1   
   130    64    65 1   
   131    64   133 1   
   132    64   134 1   
   133    65    66 1   
   134    65   135 1   
   135    65   136 1   
   136    66    67 1   
   137    67    68 1   
   138    67   137 1   
   139    67   138 1   
   140    68   139 1   
   141    68   140 1   
   142    69    70 1   
   143    69    73 2   
   144    70    71 2   
   145    70   145 1   
   146    71    72 1   
   147    71   141 1   
   148    72    73 1   
   149    73   142 1   
   150   111   144 1   
   151   112   144 1   
   152   113   144 1   
@<TRIPOS>SUBSTRUCTURE
     1 1RM         1 TEMP              0 ****  ****    0 ROOT
