@<TRIPOS>MOLECULE
1RM
  145   152     1     0     0
SMALL
No Charge or Current Charge


@<TRIPOS>ATOM
      1 C1         113.8430    25.8950     9.3720 c          1 1RM       0.628900
      2 C2        -112.5860    25.5330     8.6340 cc         1 1RM      -0.077600
      3 C3         111.3450    25.9540     9.0820 cd         1 1RM       0.122000
      4 C4        -111.2240    26.8220    10.2330 cd         1 1RM       0.361500
      5 C5         112.3420    27.8450    12.2830 ca         1 1RM      -0.305600
      6 C6        -113.4470    28.4620    12.8260 ca         1 1RM       0.224100
      7 C7         114.7250    28.2550    12.2960 ca         1 1RM      -0.172300
      8 C8        -114.8500    27.3780    11.1970 ca         1 1RM       0.278100
      9 C9         113.7050    26.8180    10.5670 ca         1 1RM      -0.318600
     10 C10       -112.4140    27.1190    11.0690 ca         1 1RM       0.045500
     11 C11        111.1910    28.0760    13.1890 c          1 1RM       0.565700
     12 C12       -111.7530    29.1980    14.1280 c5         1 1RM       0.289000
     13 C13        111.5130    28.8570    15.6120 c3         1 1RM      -0.075100
     14 C14       -115.9540    28.9180    12.9220 c3         1 1RM      -0.021800
     15 C15        113.3860    25.2910     6.2980 c          1 1RM       0.602300
     16 C16       -112.5520    25.7920     5.1450 ce         1 1RM      -0.215400
     17 C17        113.0850    26.7250     4.2870 cf         1 1RM      -0.098000
     18 C18       -112.3620    27.6360     3.3980 cf         1 1RM      -0.180000
     19 C19        111.1580    28.1540     3.7360 c2         1 1RM      -0.199200
     20 C20       -110.4810    29.4010     3.1970 c3         1 1RM      -0.023500
     21 C21        110.7460    30.5040     4.2770 c3         1 1RM       0.183300
     22 C22       -109.7670    31.7070     4.4310 c3         1 1RM      -0.126700
     23 C23        110.0690    32.5510     5.7270 c3         1 1RM       0.173300
     24 C24       -110.1530    31.7470     7.0790 c3         1 1RM      -0.069700
     25 C25        110.5880    32.6020     8.3270 c3         1 1RM       0.177300
     26 C26       -110.9440    31.7900     9.6240 c3         1 1RM      -0.059700
     27 C27        111.3790    32.7510    10.7800 c3         1 1RM       0.220500
     28 C28       -111.4090    32.1460    12.1840 c2         1 1RM      -0.266200
     29 C29        111.1560    30.8800    12.5510 c2         1 1RM      -0.041900
     30 C30       -111.1090    25.2870     5.0390 c3         1 1RM      -0.051900
     31 C31        108.9850    29.0820     2.9560 c3         1 1RM      -0.084100
     32 C32       -109.6880    32.6030     3.1620 c3         1 1RM      -0.089100
     33 C33        108.8600    30.9250     7.3470 c3         1 1RM      -0.087100
     34 C34       -112.0100    30.6830     9.3460 c3         1 1RM      -0.082100
     35 C36        108.2470    35.5270     8.5870 c3         1 1RM      -0.159100
     36 N1        -112.6320    24.8730     7.3850 ns         1 1RM      -0.389100
     37 O01        110.2490    25.6780     8.3160 os         1 1RM      -0.299000
     38 C01       -109.1310    26.4440     8.4710 ca         1 1RM       0.203000
     39 C02        109.0780    27.3820     9.5280 ca         1 1RM       0.122000
     40 N3        -110.1260    27.5620    10.4640 nc         1 1RM      -0.556000
     41 O1         114.9490    25.4540     9.0810 o          1 1RM      -0.534100
     42 O2        -116.0980    27.1090    10.7220 oh         1 1RM      -0.532100
     43 O3         113.1980    29.2760    13.9080 os         1 1RM      -0.331100
     44 O4        -110.1870    27.3830    13.3020 o          1 1RM      -0.461100
     45 O5         111.1620    30.5200    13.8810 os         1 1RM      -0.355100
     46 O6        -112.6960    33.2400    10.4580 os         1 1RM      -0.448000
     47 O7         109.5040    33.4970     8.6670 os         1 1RM      -0.474100
     48 O8        -110.3220    35.2180     7.3750 o          1 1RM      -0.482000
     49 O9         111.3010    33.2590     5.5340 oh         1 1RM      -0.671000
     50 O10       -112.0630    31.0350     4.1320 oh         1 1RM      -0.669000
     51 O11        114.5980    25.4350     6.3390 o          1 1RM      -0.551100
     52 C03       -108.0710    26.2920     7.5670 ca         1 1RM      -0.174000
     53 C04        106.9290    27.0930     7.6850 ca         1 1RM      -0.013000
     54 C05       -106.8560    28.0500     8.7080 ca         1 1RM      -0.243000
     55 C06        107.9200    28.1990     9.6280 ca         1 1RM       0.239100
     56 O         -107.8800    29.1640    10.6220 os         1 1RM      -0.308100
     57 C07        106.9150    30.2270    10.6390 c3         1 1RM       0.155600
     58 C08       -107.1810    31.1140    11.8790 c3         1 1RM      -0.074400
     59 C09        106.6570    30.5280    13.2150 c3         1 1RM      -0.074400
     60 C38       -107.4900    29.3600    13.7970 c3         1 1RM       0.169800
     61 N01        105.3840    26.9280    16.6650 n3         1 1RM      -0.760600
     62 C39       -104.1470    26.5950    15.8870 c3         1 1RM       0.197800
     63 C40        104.0160    27.0480    14.4030 c3         1 1RM       0.037600
     64 C41       -106.6730    26.3570    16.1560 c6         1 1RM       0.194300
     65 C42        107.4690    27.2840    15.1680 c6         1 1RM       0.136800
     66 N02       -106.7600    28.5440    14.7940 n3         1 1RM      -0.738600
     67 C43        106.2640    29.2790    15.9960 c6         1 1RM       0.136800
     68 C44       -105.5560    28.3650    17.0620 c6         1 1RM       0.194300
     69 N03        105.6880    24.5380    12.3260 nc         1 1RM      -0.675000
     70 C45       -105.9970    25.6990    11.6760 cc         1 1RM       0.218900
     71 C46        105.4500    26.7820    12.3060 cd         1 1RM      -0.227000
     72 N         -104.7920    26.2700    13.4110 na         1 1RM      -0.146500
     73 C          104.9530    24.8910    13.3740 cd         1 1RM       0.374400
     74 H01       -111.9720    29.6070    16.2660 hc         1 1RM       0.064367
     75 H02        111.9400    27.8800    15.8660 hc         1 1RM       0.064367
     76 H03       -110.4410    28.8250    15.8390 hc         1 1RM       0.064367
     77 H06        116.5770    28.1770    13.4380 hc         1 1RM       0.050033
     78 H04       -115.6880    29.6900    13.6530 hc         1 1RM       0.050033
     79 H05        116.5740    29.4020    12.1580 hc         1 1RM       0.050033
     80 H07       -114.1440    26.9720     4.3990 ha         1 1RM       0.207000
     81 H08        112.9320    28.0970     2.5860 ha         1 1RM       0.194000
     82 H09       -110.6620    27.7850     4.6300 ha         1 1RM       0.160000
     83 H10        110.9260    29.7090     2.2430 hc         1 1RM       0.074700
     84 H11       -110.6910    29.9610     5.2260 h1         1 1RM       0.026700
     85 H12        108.7610    31.2950     4.5620 hc         1 1RM       0.059700
     86 H13       -109.2500    33.2750     5.8230 h1         1 1RM       0.035700
     87 H14        110.9650    31.0280     6.9520 hc         1 1RM       0.079700
     88 H15       -111.4990    33.1620     8.0710 h1         1 1RM       0.102700
     89 H16        110.0290    31.2950     9.9660 hc         1 1RM       0.064700
     90 H17       -110.6700    33.5890    10.8120 h1         1 1RM       0.036700
     91 H18        111.6360    32.8720    12.9630 ha         1 1RM       0.191000
     92 H19       -110.8720    30.1070    11.8370 h4         1 1RM       0.198000
     93 H20        111.0370    24.2170     5.2660 hc         1 1RM       0.044700
     94 H22       -110.7130    25.4070     4.0240 hc         1 1RM       0.044700
     95 H21        110.4380    25.8200     5.7200 hc         1 1RM       0.044700
     96 H23       -108.4610    29.9300     2.5020 hc         1 1RM       0.035033
     97 H24        108.4810    28.8290     3.8970 hc         1 1RM       0.035033
     98 H25       -108.8830    28.2280     2.2760 hc         1 1RM       0.035033
     99 H28        108.9460    33.3990     3.3000 hc         1 1RM       0.038700
    100 H27       -109.3920    32.0230     2.2810 hc         1 1RM       0.038700
    101 H26        110.6520    33.0760     2.9380 hc         1 1RM       0.038700
    102 H29       -108.9550    30.3350     8.2620 hc         1 1RM       0.036367
    103 H30        108.6600    30.2100     6.5410 hc         1 1RM       0.036367
    104 H31       -107.9890    31.5820     7.4480 hc         1 1RM       0.036367
    105 H34        112.4540    30.2910    10.2660 hc         1 1RM       0.044700
    106 H32       -112.8320    31.0780     8.7350 hc         1 1RM       0.044700
    107 H33        111.5650    29.8340     8.8140 hc         1 1RM       0.044700
    108 H36       -108.2030    36.5400     8.1710 hc         1 1RM       0.066700
    109 H35        108.2240    35.5330     9.6830 hc         1 1RM       0.066700
    110 H37       -107.3530    34.9450     8.3400 hc         1 1RM       0.066700
    111 H40        114.0860    34.7710    10.7550 h1         1 1RM       0.032033
    112 H39       -113.2220    34.2670    12.2180 h1         1 1RM       0.032033
    113 H38        112.3910    35.2480    10.9820 h1         1 1RM       0.032033
    114 H41       -111.7130    24.5800     7.0760 hn         1 1RM       0.311500
    115 H42        115.9820    26.4280    10.0130 ho         1 1RM       0.530000
    116 H43       -111.1960    34.1170     6.0130 ho         1 1RM       0.456000
    117 H44        112.0010    31.9180     4.5840 ho         1 1RM       0.469000
    118 H45       -108.1400    25.5560     6.7700 ha         1 1RM       0.141000
    119 H46        106.1060    26.9800     6.9800 ha         1 1RM       0.124000
    120 H64       -105.9650    28.6670     8.7720 ha         1 1RM       0.129000
    121 H53        105.8900    29.8370    10.6820 h1         1 1RM       0.040200
    122 H54       -107.0150    30.8390     9.7340 h1         1 1RM       0.040200
    123 H48        106.6770    32.0730    11.7110 hc         1 1RM       0.056200
    124 H47       -108.2510    31.3390    11.9570 hc         1 1RM       0.056200
    125 H50        105.6210    30.1970    13.0690 hc         1 1RM       0.040200
    126 H49       -106.6240    31.3340    13.9590 hc         1 1RM       0.040200
    127 H52        108.4160    29.7630    14.2310 h1         1 1RM       0.051700
    128 H51       -107.7890    28.7000    12.9760 h1         1 1RM       0.051700
    129 H3         103.9870    25.5100    15.9210 h1         1 1RM       0.052700
    130 H56       -103.2900    27.0280    16.4190 h1         1 1RM       0.052700
    131 H57        102.9600    26.9520    14.1220 h1         1 1RM       0.060700
    132 H55       -104.2660    28.1110    14.3140 h1         1 1RM       0.060700
    133 H59        107.3340    26.1520    17.0110 h1         1 1RM       0.045200
    134 H58       -106.4990    25.3830    15.6770 h1         1 1RM       0.045200
    135 H61        108.4340    27.5280    15.6340 h1         1 1RM       0.040450
    136 H60       -107.7000    26.7010    14.2640 h1         1 1RM       0.040450
    137 H63        105.5480    30.0550    15.6910 h1         1 1RM       0.040450
    138 H62       -107.0980    29.7990    16.4890 h1         1 1RM       0.040450
    139 H2         104.5880    28.8110    17.3320 h1         1 1RM       0.045200
    140 H1        -106.1680    28.4040    17.9750 h1         1 1RM       0.045200
    141 H66        105.4940    27.8360    12.0670 h4         1 1RM       0.147000
    142 H         -104.5190    24.2310    14.1170 h5         1 1RM       0.050100
    143 C35        109.4740    34.7570     8.1280 c          1 1RM       0.594100
    144 C37       -113.1140    34.4370    11.1390 c3         1 1RM       0.142900
    145 H65        106.6000    25.6800    10.7770 h4         1 1RM       0.033100
@<TRIPOS>BOND
     1     1     2 1   
     2     1     9 1   
     3     1    41 2   
     4     2     3 2   
     5     2    36 1   
     6     3     4 1   
     7     3    37 1   
     8     4    10 1   
     9     4    40 2   
    10     5     6 ar  
    11     5    10 ar  
    12     5    11 1   
    13     6     7 ar  
    14     6    43 1   
    15     7     8 ar  
    16     7    14 1   
    17     8     9 ar  
    18     8    42 1   
    19     9    10 ar  
    20    11    12 1   
    21    11    44 2   
    22    12    13 1   
    23    12    43 1   
    24    12    45 1   
    25    13    74 1   
    26    13    75 1   
    27    13    76 1   
    28    14    77 1   
    29    14    78 1   
    30    14    79 1   
    31    15    16 1   
    32    15    36 1   
    33    15    51 2   
    34    16    17 2   
    35    16    30 1   
    36    17    18 1   
    37    17    80 1   
    38    18    19 2   
    39    18    81 1   
    40    19    20 1   
    41    19    82 1   
    42    20    21 1   
    43    20    31 1   
    44    20    83 1   
    45    21    22 1   
    46    21    50 1   
    47    21    84 1   
    48    22    23 1   
    49    22    32 1   
    50    22    85 1   
    51    23    24 1   
    52    23    49 1   
    53    23    86 1   
    54    24    25 1   
    55    24    33 1   
    56    24    87 1   
    57    25    26 1   
    58    25    47 1   
    59    25    88 1   
    60    26    27 1   
    61    26    34 1   
    62    26    89 1   
    63    27    28 1   
    64    27    46 1   
    65    27    90 1   
    66    28    29 2   
    67    28    91 1   
    68    29    45 1   
    69    29    92 1   
    70    30    93 1   
    71    30    94 1   
    72    30    95 1   
    73    31    96 1   
    74    31    97 1   
    75    31    98 1   
    76    32    99 1   
    77    32   100 1   
    78    32   101 1   
    79    33   102 1   
    80    33   103 1   
    81    33   104 1   
    82    34   105 1   
    83    34   106 1   
    84    34   107 1   
    85    35   108 1   
    86    35   109 1   
    87    35   110 1   
    88    35   143 1   
    89    36   114 1   
    90    37    38 1   
    91    38    39 ar  
    92    38    52 ar  
    93    39    40 1   
    94    39    55 ar  
    95    42   115 1   
    96    46   144 1   
    97    47   143 1   
    98    48   143 2   
    99    49   116 1   
   100    50   117 1   
   101    52    53 ar  
   102    52   118 1   
   103    53    54 ar  
   104    53   119 1   
   105    54    55 ar  
   106    54   120 1   
   107    55    56 1   
   108    56    57 1   
   109    57    58 1   
   110    57   121 1   
   111    57   122 1   
   112    58    59 1   
   113    58   123 1   
   114    58   124 1   
   115    59    60 1   
   116    59   125 1   
   117    59   126 1   
   118    60    66 1   
   119    60   127 1   
   120    60   128 1   
   121    61    62 1   
   122    61    64 1   
   123    61    68 1   
   124    62    63 1   
   125    62   129 1   
   126    62   130 1   
   127    63    72 1   
   128    63   131 1   
   129    63   132 1   
   130    64    65 1   
   131    64   133 1   
   132    64   134 1   
   133    65    66 1   
   134    65   135 1   
   135    65   136 1   
   136    66    67 1   
   137    67    68 1   
   138    67   137 1   
   139    67   138 1   
   140    68   139 1   
   141    68   140 1   
   142    69    70 1   
   143    69    73 2   
   144    70    71 2   
   145    70   145 1   
   146    71    72 1   
   147    71   141 1   
   148    72    73 1   
   149    73   142 1   
   150   111   144 1   
   151   112   144 1   
   152   113   144 1   
@<TRIPOS>SUBSTRUCTURE
     1 1RM         1 TEMP              0 ****  ****    0 ROOT
