@<TRIPOS>MOLECULE
1RQ
   66    72     1     0     0
SMALL
No Charge or Current Charge


@<TRIPOS>ATOM
      1 C4          -1.7370     0.8350     1.0640 ca         1 1RQ       0.270500
      2 C5          -1.4110     1.2740     2.3610 ca         1 1RQ      -0.293000
      3 C6          -0.0740     1.5860     2.6500 ca         1 1RQ       0.162900
      4 N1           0.8850     1.4790     1.7150 nb         1 1RQ      -0.247000
      5 N3          -0.7630     0.7440     0.1310 nb         1 1RQ      -0.265000
      6 CAQ          7.8760     1.7520     0.2570 cx         1 1RQ      -0.100900
      7 CAR          8.5420     0.4080     0.0850 cx         1 1RQ      -0.100900
      8 CBJ          7.5650     0.9060    -0.9640 cx         1 1RQ      -0.237700
      9 OAA          6.0350    -0.9320    -0.8400 o          1 1RQ      -0.604100
     10 NBK          5.1250     1.1020    -1.4500 n          1 1RQ      -0.397800
     11 CAT          3.7150     0.6230    -1.4740 c6         1 1RQ       0.075000
     12 CAS          5.2420     2.5650    -1.7070 c6         1 1RQ       0.098000
     13 CAO          4.4340     3.3650    -0.6580 c6         1 1RQ      -0.100400
     14 CAP          2.9540     2.9000    -0.6240 c6         1 1RQ      -0.097400
     15 CBI          2.8540     1.3650    -0.4130 c6         1 1RQ       0.218500
     16 C2           0.4860     1.0650     0.4990 ca         1 1RQ       0.409900
     17 NBL         -3.0760     0.5440     0.8290 na         1 1RQ      -0.206100
     18 CBH         -3.9000     1.3860     0.1380 ca         1 1RQ      -0.025200
     19 CAN         -4.0910     2.7640     0.3080 ca         1 1RQ      -0.157000
     20 CAZ         -5.0210     3.4070    -0.5300 ca         1 1RQ       0.152100
     21 OAB         -5.2350     4.7450    -0.3970 oh         1 1RQ      -0.535100
     22 CAG         -5.7300     2.6700    -1.5030 ca         1 1RQ      -0.219000
     23 CAL         -5.5110     1.2810    -1.6440 ca         1 1RQ      -0.008000
     24 CBG         -4.5770     0.6600    -0.7990 ca         1 1RQ       0.041400
     25 NAW         -4.2050    -0.6720    -0.7790 nc         1 1RQ      -0.560100
     26 CBD         -3.2680    -0.7050     0.1960 cd         1 1RQ       0.502400
     27 CBA         -2.5660    -1.9680     0.5380 ca         1 1RQ      -0.100900
     28 CAM         -2.4830    -3.0180    -0.4050 ca         1 1RQ      -0.050000
     29 CBF         -1.8460    -4.2310    -0.0800 ca         1 1RQ      -0.045000
     30 CAJ         -1.7520    -5.2620    -1.0350 ca         1 1RQ      -0.092000
     31 CAD         -1.1130    -6.4710    -0.7070 ca         1 1RQ      -0.112000
     32 CAC         -0.5680    -6.6540     0.5760 ca         1 1RQ      -0.103000
     33 CAI         -0.6610    -5.6280     1.5320 ca         1 1RQ      -0.101000
     34 CBE         -1.2990    -4.4150     1.2070 ca         1 1RQ      -0.027000
     35 CAK         -1.4020    -3.3890     2.1600 ca         1 1RQ      -0.101000
     36 CAH         -2.0380    -2.1800     1.8320 ca         1 1RQ      -0.085000
     37 H1          -2.1750     1.3680     3.1280 ha         1 1RQ       0.150000
     38 H2           0.2320     1.9250     3.6380 h4         1 1RQ       0.026100
     39 H4           8.4850     2.6420     0.1160 hc         1 1RQ       0.081200
     40 H5           9.5990     0.3970    -0.1710 hc         1 1RQ       0.081200
     41 H6           8.2290    -0.3970     0.7470 hc         1 1RQ       0.081200
     42 H7           7.9940     1.2210    -1.9110 hc         1 1RQ       0.087700
     43 H8           3.2980     0.7980    -2.4750 h1         1 1RQ       0.069200
     44 H9           3.6650    -0.4590    -1.2860 h1         1 1RQ       0.069200
     45 H10          6.2850     2.9080    -1.7060 h1         1 1RQ       0.053700
     46 H11          4.8440     2.7780    -2.7100 h1         1 1RQ       0.053700
     47 H12          4.8880     3.2320     0.3340 hc         1 1RQ       0.053200
     48 H13          4.4860     4.4380    -0.8860 hc         1 1RQ       0.053200
     49 H14          2.4190     3.4290     0.1760 hc         1 1RQ       0.051200
     50 H15          2.4630     3.1790    -1.5670 hc         1 1RQ       0.051200
     51 H16          3.2730     1.1130     0.5750 h1         1 1RQ       0.096700
     52 H18         -3.5420     3.3200     1.0630 ha         1 1RQ       0.138000
     53 H19         -5.9100     5.0150    -1.0560 ho         1 1RQ       0.466000
     54 H20         -6.4500     3.1640    -2.1520 ha         1 1RQ       0.115000
     55 H21         -6.0490     0.7030    -2.3910 ha         1 1RQ       0.131000
     56 H22         -2.9010    -2.8880    -1.4010 ha         1 1RQ       0.130000
     57 H23         -2.1710    -5.1290    -2.0300 ha         1 1RQ       0.115000
     58 H24         -1.0410    -7.2650    -1.4460 ha         1 1RQ       0.113000
     59 H25         -0.0750    -7.5900     0.8290 ha         1 1RQ       0.113000
     60 H26         -0.2390    -5.7770     2.5240 ha         1 1RQ       0.116000
     61 H27         -0.9970    -3.5270     3.1600 ha         1 1RQ       0.118000
     62 H28         -2.1280    -1.4130     2.5970 ha         1 1RQ       0.115000
     63 NAX          1.4400     0.9370    -0.5000 nu         1 1RQ      -0.913100
     64 CAY          6.1970     0.2600    -1.0690 c          1 1RQ       0.635100
     65 H3           7.1120     1.8420     1.0260 hc         1 1RQ       0.081200
     66 H17          1.0700     0.6460    -1.4060 hn         1 1RQ       0.507000
@<TRIPOS>BOND
     1     1     2 ar  
     2     1     5 ar  
     3     1    17 1   
     4     2     3 ar  
     5     2    37 1   
     6     3     4 ar  
     7     3    38 1   
     8     4    16 ar  
     9     5    16 ar  
    10     6     7 1   
    11     6     8 1   
    12     6    39 1   
    13     6    65 1   
    14     7     8 1   
    15     7    40 1   
    16     7    41 1   
    17     8    42 1   
    18     8    64 1   
    19     9    64 2   
    20    10    11 1   
    21    10    12 1   
    22    10    64 1   
    23    11    15 1   
    24    11    43 1   
    25    11    44 1   
    26    12    13 1   
    27    12    45 1   
    28    12    46 1   
    29    13    14 1   
    30    13    47 1   
    31    13    48 1   
    32    14    15 1   
    33    14    49 1   
    34    14    50 1   
    35    15    51 1   
    36    15    63 1   
    37    16    63 1   
    38    17    18 1   
    39    17    26 1   
    40    18    19 ar  
    41    18    24 ar  
    42    19    20 ar  
    43    19    52 1   
    44    20    21 1   
    45    20    22 ar  
    46    21    53 1   
    47    22    23 ar  
    48    22    54 1   
    49    23    24 ar  
    50    23    55 1   
    51    24    25 1   
    52    25    26 2   
    53    26    27 1   
    54    27    28 ar  
    55    27    36 ar  
    56    28    29 ar  
    57    28    56 1   
    58    29    30 ar  
    59    29    34 ar  
    60    30    31 ar  
    61    30    57 1   
    62    31    32 ar  
    63    31    58 1   
    64    32    33 ar  
    65    32    59 1   
    66    33    34 ar  
    67    33    60 1   
    68    34    35 ar  
    69    35    36 ar  
    70    35    61 1   
    71    36    62 1   
    72    63    66 1   
@<TRIPOS>SUBSTRUCTURE
     1 1RQ         1 TEMP              0 ****  ****    0 ROOT
