@<TRIPOS>MOLECULE
1RQ
   66    72     1     0     0
SMALL
bcc


@<TRIPOS>ATOM
      1 C4          -1.7130     1.2700     0.7090 ca         1 1RQ       0.598800
      2 C5          -1.5060     2.1720     1.7440 ca         1 1RQ      -0.441600
      3 C6          -0.2010     2.6210     1.8680 ca         1 1RQ       0.491200
      4 N1           0.7890     2.2120     1.0940 nb         1 1RQ      -0.773000
      5 N3          -0.7600     0.8570    -0.0920 nb         1 1RQ      -0.791000
      6 CAQ          7.7640     1.3390     1.4440 cx         1 1RQ      -0.100900
      7 CAR          8.2340    -0.0460     1.1850 cx         1 1RQ      -0.100900
      8 CBJ          7.3010     0.6070     0.2060 cx         1 1RQ      -0.237700
      9 OAA          5.4260    -0.4820     1.1350 o          1 1RQ      -0.604100
     10 NBK          5.1240     0.4470    -0.8980 n          1 1RQ      -0.464800
     11 CAT          3.7280     0.0510    -0.9160 c6         1 1RQ       0.075000
     12 CAS          5.4260     1.4740    -1.8850 c6         1 1RQ       0.098000
     13 CAO          4.5990     2.7250    -1.6110 c6         1 1RQ      -0.100400
     14 CAP          3.1110     2.3950    -1.5650 c6         1 1RQ      -0.097400
     15 CBI          2.8330     1.2490    -0.5930 c6         1 1RQ       0.218500
     16 C2           0.4750     1.3180     0.1500 ca         1 1RQ       0.935900
     17 NBL         -2.9910     0.7380     0.4720 na         1 1RQ      -0.206100
     18 CBH         -4.1580     1.4640     0.3310 ca         1 1RQ      -0.025200
     19 CAN         -4.4420     2.8140     0.4840 ca         1 1RQ      -0.175000
     20 CAZ         -5.7500     3.2060     0.2250 ca         1 1RQ       0.152100
     21 OAB         -6.0420     4.5130     0.3790 oh         1 1RQ      -0.496100
     22 CAG         -6.7250     2.2770    -0.1790 ca         1 1RQ      -0.237000
     23 CAL         -6.4150     0.9410    -0.3430 ca         1 1RQ      -0.026000
     24 CBG         -5.1110     0.5270    -0.0910 ca         1 1RQ       0.041400
     25 NAW         -4.5410    -0.7200    -0.1890 nc         1 1RQ      -0.560100
     26 CBD         -3.2940    -0.5720     0.1390 cd         1 1RQ       0.502400
     27 CBA         -2.3360    -1.6760     0.2260 ca         1 1RQ      -0.100900
     28 CAM         -2.3590    -2.6550    -0.7350 ca         1 1RQ      -0.068000
     29 CBF         -1.4740    -3.7540    -0.6760 ca         1 1RQ      -0.045000
     30 CAJ         -1.4740    -4.7640    -1.6670 ca         1 1RQ      -0.110000
     31 CAD         -0.6020    -5.8160    -1.5880 ca         1 1RQ      -0.130000
     32 CAC          0.3090    -5.9070    -0.5140 ca         1 1RQ      -0.121000
     33 CAI          0.3300    -4.9440     0.4590 ca         1 1RQ      -0.119000
     34 CBE         -0.5570    -3.8460     0.4030 ca         1 1RQ      -0.027000
     35 CAK         -0.5690    -2.8350     1.3940 ca         1 1RQ      -0.119000
     36 CAH         -1.4300    -1.7800     1.3100 ca         1 1RQ      -0.103000
     37 H1          -2.2860     2.4870     2.4200 ha         1 1RQ       0.168000
     38 H2           0.0540     3.3380     2.6410 h4         1 1RQ       0.026100
     39 H4           8.4510     2.1620     1.3030 hc         1 1RQ       0.081200
     40 H5           9.2550    -0.1880     0.8570 hc         1 1RQ       0.081200
     41 H6           7.8390    -0.8440     1.7990 hc         1 1RQ       0.081200
     42 H7           7.7510     0.9230    -0.7240 hc         1 1RQ       0.087700
     43 H8           3.4940    -0.3260    -1.9190 h1         1 1RQ       0.069200
     44 H9           3.5590    -0.7560    -0.2090 h1         1 1RQ       0.069200
     45 H10          6.4850     1.7100    -1.8940 h1         1 1RQ       0.053700
     46 H11          5.1810     1.0760    -2.8740 h1         1 1RQ       0.053700
     47 H12          4.9180     3.1620    -0.6600 hc         1 1RQ       0.053200
     48 H13          4.7980     3.4670    -2.3860 hc         1 1RQ       0.053200
     49 H14          2.5300     3.2740    -1.2770 hc         1 1RQ       0.051200
     50 H15          2.7710     2.0980    -2.5640 hc         1 1RQ       0.051200
     51 H16          3.0580     1.5760     0.4240 h1         1 1RQ       0.096700
     52 H18         -3.7000     3.5400     0.7860 ha         1 1RQ       0.156000
     53 H19         -6.9630     4.6810     0.1510 ho         1 1RQ       0.427000
     54 H20         -7.7360     2.6180    -0.3710 ha         1 1RQ       0.133000
     55 H21         -7.1700     0.2340    -0.6630 ha         1 1RQ       0.149000
     56 H22         -3.0540    -2.5840    -1.5620 ha         1 1RQ       0.148000
     57 H23         -2.1730    -4.6930    -2.4900 ha         1 1RQ       0.133000
     58 H24         -0.6080    -6.5830    -2.3500 ha         1 1RQ       0.131000
     59 H25          0.9930    -6.7440    -0.4640 ha         1 1RQ       0.131000
     60 H26          1.0300    -5.0150     1.2840 ha         1 1RQ       0.134000
     61 H27          0.1150    -2.9080     2.2300 ha         1 1RQ       0.136000
     62 H28         -1.4310    -1.0360     2.0960 ha         1 1RQ       0.133000
     63 NAX          1.4530     0.8250    -0.6260 nu         1 1RQ      -0.857900
     64 CAY          5.8810     0.1520     0.1890 c          1 1RQ       0.702100
     65 H3           7.0350     1.4880     2.2300 hc         1 1RQ       0.081200
     66 H17          1.1580     0.2170    -1.3740 hn         1 1RQ       0.451800
@<TRIPOS>BOND
     1     1     2 ar  
     2     1     5 ar  
     3     1    17 1   
     4     2     3 ar  
     5     2    37 1   
     6     3     4 ar  
     7     3    38 1   
     8     4    16 ar  
     9     5    16 ar  
    10     6     7 1   
    11     6     8 1   
    12     6    39 1   
    13     6    65 1   
    14     7     8 1   
    15     7    40 1   
    16     7    41 1   
    17     8    42 1   
    18     8    64 1   
    19     9    64 2   
    20    10    11 1   
    21    10    12 1   
    22    10    64 1   
    23    11    15 1   
    24    11    43 1   
    25    11    44 1   
    26    12    13 1   
    27    12    45 1   
    28    12    46 1   
    29    13    14 1   
    30    13    47 1   
    31    13    48 1   
    32    14    15 1   
    33    14    49 1   
    34    14    50 1   
    35    15    51 1   
    36    15    63 1   
    37    16    63 1   
    38    17    18 1   
    39    17    26 1   
    40    18    19 ar  
    41    18    24 ar  
    42    19    20 ar  
    43    19    52 1   
    44    20    21 1   
    45    20    22 ar  
    46    21    53 1   
    47    22    23 ar  
    48    22    54 1   
    49    23    24 ar  
    50    23    55 1   
    51    24    25 1   
    52    25    26 2   
    53    26    27 1   
    54    27    28 ar  
    55    27    36 ar  
    56    28    29 ar  
    57    28    56 1   
    58    29    30 ar  
    59    29    34 ar  
    60    30    31 ar  
    61    30    57 1   
    62    31    32 ar  
    63    31    58 1   
    64    32    33 ar  
    65    32    59 1   
    66    33    34 ar  
    67    33    60 1   
    68    34    35 ar  
    69    35    36 ar  
    70    35    61 1   
    71    36    62 1   
    72    63    66 1   
@<TRIPOS>SUBSTRUCTURE
     1 1RQ         1 TEMP              0 ****  ****    0 ROOT
