@<TRIPOS>MOLECULE
1RR
   96   100     1     0     0
SMALL
bcc


@<TRIPOS>ATOM
      1 C24         -2.6190     3.7600    -0.5730 c          1 1RR       0.787100
      2 N30         -3.5180     4.5410    -1.2220 ns         1 1RR      -0.589900
      3 O31         -1.4170     4.0000    -0.5190 o          1 1RR      -0.661100
      4 C35         -3.2460     5.8650    -1.7890 c3         1 1RR       0.153400
      5 C40         -2.7770     6.8480    -0.7130 c3         1 1RR      -0.103433
      6 C41         -2.2220     5.7810    -2.9210 c3         1 1RR      -0.103433
      7 C42         -4.5760     6.3520    -2.3630 c3         1 1RR      -0.103433
      8 N21         -3.1730     2.6650     0.0320 ns         1 1RR      -0.578900
      9 C18         -2.3710     1.6380     0.6440 c3         1 1RR       0.054700
     10 C22         -2.8250     1.3320     2.1000 c3         1 1RR      -0.041000
     11 C25         -2.7210     2.6320     2.9000 c3         1 1RR      -0.090433
     12 C26         -4.2610     0.8090     2.1730 c3         1 1RR      -0.090433
     13 C27         -1.8880     0.2990     2.7300 c3         1 1RR      -0.090433
     14 C16         -2.4150     0.4020    -0.2520 c          1 1RR       0.657100
     15 O19         -3.4820    -0.0010    -0.6910 o          1 1RR      -0.574100
     16 C7          -1.7550    -2.6050    -0.4140 c          1 1RR       0.662100
     17 C15          0.0840     0.1900    -0.1930 c5         1 1RR       0.086000
     18 C17          0.9520    -0.9980    -0.6270 c5         1 1RR       0.130100
     19 C28          4.4040     0.1680    -0.9490 ca         1 1RR      -0.207300
     20 C11         -1.2980    -1.4590    -1.3170 c5         1 1RR       0.026700
     21 O12         -1.3010    -2.7270     0.7120 o          1 1RR      -0.613100
     22 N13         -1.2610    -0.2230    -0.5550 n          1 1RR      -0.467800
     23 C14          0.1550    -1.6490    -1.7460 c5         1 1RR      -0.080400
     24 O20          2.2140    -0.6090    -1.1410 os         1 1RR      -0.318900
     25 C23          3.1790    -0.1930    -0.3220 ca         1 1RR       0.218100
     26 C29          3.0730    -0.0840     1.0410 ca         1 1RR      -0.363300
     27 C32          5.4470     0.6390    -0.1150 ca         1 1RR       0.469600
     28 C33          4.6200     0.0900    -2.3370 ca         1 1RR      -0.040000
     29 C34          4.1830     0.3890     1.7810 cp         1 1RR       0.539800
     30 N36          5.3170     0.7410     1.2300 nb         1 1RR      -0.712000
     31 C37          6.6700     1.0170    -0.6950 ca         1 1RR      -0.235300
     32 C38          5.8190     0.4620    -2.8870 ca         1 1RR      -0.226000
     33 C39          4.0790     0.5330     3.2520 cp         1 1RR      -0.153500
     34 C43          6.8610     0.9350    -2.0570 ca         1 1RR       0.152100
     35 C44          4.8940     1.4510     3.9160 ca         1 1RR      -0.095000
     36 C45          3.1840    -0.2310     4.0010 ca         1 1RR      -0.095000
     37 O46          8.0590     1.3200    -2.5250 os         1 1RR      -0.320900
     38 C47          4.8050     1.6100     5.2900 ca         1 1RR      -0.140500
     39 C48          3.1000    -0.0770     5.3780 ca         1 1RR      -0.140500
     40 C49          8.3110     1.2500    -3.9170 c3         1 1RR       0.129700
     41 C50          3.9070     0.8470     6.0270 ca         1 1RR      -0.120000
     42 C1          -3.1690    -4.5510    -0.2340 cx         1 1RR      -0.049600
     43 C2          -3.2840    -5.8480    -1.0240 cx         1 1RR      -0.120500
     44 C3          -2.2710    -5.7020     0.0720 cx         1 1RR      -0.095400
     45 C6          -4.4390    -6.7550    -0.9050 c2         1 1RR      -0.074200
     46 C10         -4.9700    -7.4060    -1.9370 c2         1 1RR      -0.286000
     47 C5          -4.2680    -4.1480     0.7570 c          1 1RR       0.954600
     48 O8          -4.5880    -4.9980     1.6130 o          1 1RR      -0.817800
     49 O9          -4.7480    -3.0140     0.6060 o          1 1RR      -0.817800
     50 H27         -4.4920     4.3180    -1.0940 hn         1 1RR       0.303500
     51 H31         -1.8260     6.5450    -0.2790 hc         1 1RR       0.041811
     52 H32         -2.6480     7.8430    -1.1430 hc         1 1RR       0.041811
     53 H33         -3.5120     6.9220     0.0900 hc         1 1RR       0.041811
     54 H34         -2.5490     5.0770    -3.6880 hc         1 1RR       0.041811
     55 H35         -2.1090     6.7590    -3.3910 hc         1 1RR       0.041811
     56 H36         -1.2450     5.4660    -2.5600 hc         1 1RR       0.041811
     57 H37         -5.3470     6.4070    -1.5910 hc         1 1RR       0.041811
     58 H38         -4.4610     7.3510    -2.7840 hc         1 1RR       0.041811
     59 H39         -4.9330     5.6930    -3.1560 hc         1 1RR       0.041811
     60 H19         -4.1270     2.4220    -0.1860 hn         1 1RR       0.321500
     61 H18         -1.3580     2.0360     0.7080 h1         1 1RR       0.084700
     62 H20         -3.3880     3.4020     2.5120 hc         1 1RR       0.040700
     63 H21         -2.9890     2.4540     3.9430 hc         1 1RR       0.040700
     64 H22         -1.7040     3.0290     2.8810 hc         1 1RR       0.040700
     65 H7          -4.3700    -0.1760     1.7200 hc         1 1RR       0.040700
     66 H8          -4.5580     0.7280     3.2210 hc         1 1RR       0.040700
     67 H9          -4.9710     1.4870     1.6940 hc         1 1RR       0.040700
     68 H23         -0.8600     0.6670     2.7700 hc         1 1RR       0.040700
     69 H24         -2.1970     0.0960     3.7570 hc         1 1RR       0.040700
     70 H25         -1.8870    -0.6520     2.1950 hc         1 1RR       0.040700
     71 H4           0.1730     0.3870     0.8740 h1         1 1RR       0.059700
     72 H5           0.3830     1.0950    -0.7300 h1         1 1RR       0.059700
     73 H6           1.0870    -1.6990     0.2020 h1         1 1RR       0.088700
     74 H15         -1.9510    -1.3630    -2.1840 h1         1 1RR       0.080700
     75 H16          0.3310    -1.1090    -2.6790 hc         1 1RR       0.064200
     76 H17          0.4220    -2.6940    -1.9070 hc         1 1RR       0.064200
     77 H26          2.1560    -0.3230     1.5560 ha         1 1RR       0.158000
     78 H28          3.8350    -0.2670    -2.9890 ha         1 1RR       0.145000
     79 H29          7.4630     1.3770    -0.0510 ha         1 1RR       0.158000
     80 H30          5.9470     0.3860    -3.9570 ha         1 1RR       0.132000
     81 H40          5.5950     2.0460     3.3460 ha         1 1RR       0.145000
     82 H41          2.5590    -0.9750     3.5240 ha         1 1RR       0.145000
     83 H42          5.4360     2.3350     5.7880 ha         1 1RR       0.130000
     84 H43          2.4050    -0.6830     5.9430 ha         1 1RR       0.130000
     85 H44          9.3240     1.6150    -4.0630 h1         1 1RR       0.038033
     86 H45          8.2490     0.2260    -4.2920 h1         1 1RR       0.038033
     87 H46          7.6250     1.8800    -4.4890 h1         1 1RR       0.038033
     88 H47          3.8380     0.9720     7.0990 ha         1 1RR       0.125000
     89 H13         -3.0620    -3.1990    -1.8300 hn         1 1RR       0.308500
     90 H10         -2.8880    -5.7710    -2.0320 hc         1 1RR       0.047700
     91 H11         -1.2300    -5.6290    -0.2140 hc         1 1RR       0.071200
     92 H12         -2.4550    -6.2250     1.0010 hc         1 1RR       0.071200
     93 H1          -4.8540    -6.8890     0.0860 ha         1 1RR       0.156000
     94 H2          -4.5850    -7.2980    -2.9450 ha         1 1RR       0.092000
     95 H3          -5.8120    -8.0730    -1.8090 ha         1 1RR       0.092000
     96 N4          -2.5950    -3.4800    -0.9820 ns         1 1RR      -0.494900
@<TRIPOS>BOND
     1     1     2 1   
     2     1     3 2   
     3     1     8 1   
     4     2     4 1   
     5     2    50 1   
     6     4     5 1   
     7     4     6 1   
     8     4     7 1   
     9     5    51 1   
    10     5    52 1   
    11     5    53 1   
    12     6    54 1   
    13     6    55 1   
    14     6    56 1   
    15     7    57 1   
    16     7    58 1   
    17     7    59 1   
    18     8     9 1   
    19     8    60 1   
    20     9    10 1   
    21     9    14 1   
    22     9    61 1   
    23    10    11 1   
    24    10    12 1   
    25    10    13 1   
    26    11    62 1   
    27    11    63 1   
    28    11    64 1   
    29    12    65 1   
    30    12    66 1   
    31    12    67 1   
    32    13    68 1   
    33    13    69 1   
    34    13    70 1   
    35    14    15 2   
    36    14    22 1   
    37    16    20 1   
    38    16    21 2   
    39    16    96 1   
    40    17    18 1   
    41    17    22 1   
    42    17    71 1   
    43    17    72 1   
    44    18    23 1   
    45    18    24 1   
    46    18    73 1   
    47    19    25 ar  
    48    19    27 ar  
    49    19    28 ar  
    50    20    22 1   
    51    20    23 1   
    52    20    74 1   
    53    23    75 1   
    54    23    76 1   
    55    24    25 1   
    56    25    26 ar  
    57    26    29 ar  
    58    26    77 1   
    59    27    30 ar  
    60    27    31 ar  
    61    28    32 ar  
    62    28    78 1   
    63    29    30 ar  
    64    29    33 1   
    65    31    34 ar  
    66    31    79 1   
    67    32    34 ar  
    68    32    80 1   
    69    33    35 ar  
    70    33    36 ar  
    71    34    37 1   
    72    35    38 ar  
    73    35    81 1   
    74    36    39 ar  
    75    36    82 1   
    76    37    40 1   
    77    38    41 ar  
    78    38    83 1   
    79    39    41 ar  
    80    39    84 1   
    81    40    85 1   
    82    40    86 1   
    83    40    87 1   
    84    41    88 1   
    85    42    43 1   
    86    42    44 1   
    87    42    47 1   
    88    42    96 1   
    89    43    44 1   
    90    43    45 1   
    91    43    90 1   
    92    44    91 1   
    93    44    92 1   
    94    45    46 2   
    95    45    93 1   
    96    46    94 1   
    97    46    95 1   
    98    47    48 1   
    99    47    49 1   
   100    89    96 1   
@<TRIPOS>SUBSTRUCTURE
     1 1RR         1 TEMP              0 ****  ****    0 ROOT
