@<TRIPOS>MOLECULE
1RR
   96   100     1     0     0
SMALL
No Charge or Current Charge


@<TRIPOS>ATOM
      1 C24         -2.0760     4.1070    -1.2840 c          1 1RR       0.653100
      2 N30         -3.0390     4.8470    -1.9230 ns         1 1RR      -0.522900
      3 O31         -0.9120     4.4420    -1.1540 o          1 1RR      -0.661100
      4 C35         -2.8760     6.1650    -2.5490 c3         1 1RR       0.153400
      5 C40         -2.4380     7.2160    -1.4970 c3         1 1RR      -0.103433
      6 C41         -1.8490     6.0950    -3.7080 c3         1 1RR      -0.103433
      7 C42         -4.2550     6.5690    -3.1210 c3         1 1RR      -0.103433
      8 N21         -2.5760     2.9270    -0.8060 ns         1 1RR      -0.511900
      9 C18         -1.7990     1.9150    -0.0480 c3         1 1RR       0.054700
     10 C22         -2.0660     2.0210     1.5070 c3         1 1RR      -0.041000
     11 C25         -1.7900     3.4700     2.0050 c3         1 1RR      -0.090433
     12 C26         -3.5410     1.6610     1.8420 c3         1 1RR      -0.090433
     13 C27         -1.1380     1.0710     2.3120 c3         1 1RR      -0.090433
     14 C16         -2.1050     0.5010    -0.6550 c          1 1RR       0.590100
     15 O19         -3.2140     0.2380    -1.1130 o          1 1RR      -0.574100
     16 C7          -2.0710    -2.7810    -0.0030 c          1 1RR       0.595100
     17 C15          0.3450    -0.2200    -0.5480 c5         1 1RR       0.086000
     18 C17          0.9070    -1.6550    -0.3600 c5         1 1RR       0.153300
     19 C28          3.8100     0.1410    -0.4880 ca         1 1RR      -0.142000
     20 C11         -1.3870    -1.8970    -1.0950 c5         1 1RR       0.026700
     21 O12         -2.1770    -2.5350     1.1920 o          1 1RR      -0.613100
     22 N13         -1.1050    -0.4980    -0.6480 n          1 1RR      -0.400800
     23 C14          0.0510    -2.4420    -1.3790 c5         1 1RR      -0.080400
     24 O20          2.2890    -1.7070    -0.8110 os         1 1RR      -0.342100
     25 C23          3.0830    -0.9460     0.0260 ca         1 1RR       0.218100
     26 C29          3.2010    -1.2520     1.3870 ca         1 1RR      -0.280000
     27 C32          4.5980     0.9040     0.4000 ca         1 1RR       0.339000
     28 C33          3.7490     0.4820    -1.8560 ca         1 1RR      -0.022000
     29 C34          4.0170    -0.4550     2.2160 cp         1 1RR       0.474500
     30 N36          4.6800     0.6080     1.7140 nb         1 1RR      -0.712000
     31 C37          5.3120     2.0040    -0.0990 ca         1 1RR      -0.152000
     32 C38          4.4710     1.5850    -2.3390 ca         1 1RR      -0.208000
     33 C39          4.1820    -0.7270     3.6880 cp         1 1RR      -0.153500
     34 C43          5.2570     2.3510    -1.4560 ca         1 1RR       0.152100
     35 C44          4.5550     0.3070     4.5930 ca         1 1RR      -0.077000
     36 C45          3.9800    -2.0260     4.2330 ca         1 1RR      -0.077000
     37 O46          5.9870     3.4460    -1.8710 os         1 1RR      -0.344100
     38 C47          4.7060     0.0580     5.9670 ca         1 1RR      -0.122500
     39 C48          4.1330    -2.2730     5.6080 ca         1 1RR      -0.122500
     40 C49          5.9960     3.8880    -3.2410 c3         1 1RR       0.152900
     41 C50          4.4940    -1.2320     6.4770 ca         1 1RR      -0.102000
     42 C1          -3.2830    -4.9750     0.1160 cx         1 1RR      -0.049600
     43 C2          -3.1090    -6.3740    -0.4540 cx         1 1RR      -0.120500
     44 C3          -2.4130    -5.9970     0.8300 cx         1 1RR      -0.095400
     45 C6          -4.2170    -7.3690    -0.4240 c2         1 1RR      -0.124200
     46 C10         -5.2500    -7.3680    -1.2790 c2         1 1RR      -0.386000
     47 C5          -4.6550    -4.6070     0.7300 c          1 1RR       0.744000
     48 O8          -4.8480    -4.8020     1.9240 o          1 1RR      -0.712500
     49 O9          -5.4850    -4.0780    -0.0010 o          1 1RR      -0.712500
     50 H27         -3.9630     4.4390    -1.9540 hn         1 1RR       0.303500
     51 H31         -1.4370     7.0030    -1.1050 hc         1 1RR       0.041811
     52 H32         -2.4120     8.2190    -1.9390 hc         1 1RR       0.041811
     53 H33         -3.1370     7.2360    -0.6520 hc         1 1RR       0.041811
     54 H34         -2.1310     5.3210    -4.4320 hc         1 1RR       0.041811
     55 H35         -1.7990     7.0530    -4.2400 hc         1 1RR       0.041811
     56 H36         -0.8410     5.8690    -3.3430 hc         1 1RR       0.041811
     57 H37         -5.0080     6.6230    -2.3260 hc         1 1RR       0.041811
     58 H38         -4.2050     7.5510    -3.6060 hc         1 1RR       0.041811
     59 H39         -4.5990     5.8420    -3.8660 hc         1 1RR       0.041811
     60 H19         -3.5480     2.7240    -1.0010 hn         1 1RR       0.321500
     61 H18         -0.7360     2.1160    -0.2230 h1         1 1RR       0.084700
     62 H20         -2.4930     4.1890     1.5680 hc         1 1RR       0.040700
     63 H21         -1.8930     3.5370     3.0950 hc         1 1RR       0.040700
     64 H22         -0.7730     3.7860     1.7450 hc         1 1RR       0.040700
     65 H7          -3.7660     0.6190     1.5850 hc         1 1RR       0.040700
     66 H8          -3.7400     1.7850     2.9140 hc         1 1RR       0.040700
     67 H9          -4.2430     2.3050     1.2990 hc         1 1RR       0.040700
     68 H23         -0.0830     1.3350     2.1700 hc         1 1RR       0.040700
     69 H24         -1.3470     1.1420     3.3870 hc         1 1RR       0.040700
     70 H25         -1.2800     0.0240     2.0230 hc         1 1RR       0.040700
     71 H4           0.6060     0.4230     0.2990 h1         1 1RR       0.059700
     72 H5           0.7160     0.2480    -1.4700 h1         1 1RR       0.059700
     73 H6           0.7840    -2.0370     0.6630 h1         1 1RR       0.088700
     74 H15         -2.0080    -1.9170    -2.0010 h1         1 1RR       0.080700
     75 H16          0.3550    -2.2110    -2.4070 hc         1 1RR       0.064200
     76 H17          0.1380    -3.5270    -1.2530 hc         1 1RR       0.064200
     77 H26          2.6690    -2.0990     1.8020 ha         1 1RR       0.140000
     78 H28          3.1450    -0.1000    -2.5490 ha         1 1RR       0.127000
     79 H29          5.9190     2.5970     0.5780 ha         1 1RR       0.140000
     80 H30          4.4060     1.8260    -3.3950 ha         1 1RR       0.114000
     81 H40          4.7200     1.3190     4.2270 ha         1 1RR       0.127000
     82 H41          3.7170    -2.8600     3.5870 ha         1 1RR       0.127000
     83 H42          4.9870     0.8670     6.6380 ha         1 1RR       0.112000
     84 H43          3.9750    -3.2750     6.0000 ha         1 1RR       0.112000
     85 H44          6.6380     4.7710    -3.3510 h1         1 1RR       0.038033
     86 H45          6.3840     3.1020    -3.9010 h1         1 1RR       0.038033
     87 H46          4.9850     4.1590    -3.5700 h1         1 1RR       0.038033
     88 H47          4.6120    -1.4250     7.5410 ha         1 1RR       0.107000
     89 H13         -2.4460    -4.0120    -1.5950 hn         1 1RR       0.308500
     90 H10         -2.4690    -6.4750    -1.3280 hc         1 1RR       0.047700
     91 H11         -1.3350    -5.8580     0.7980 hc         1 1RR       0.071200
     92 H12         -2.7800    -6.4340     1.7550 hc         1 1RR       0.071200
     93 H1          -4.1430    -8.1370     0.3520 ha         1 1RR       0.206000
     94 H2          -5.3420    -6.6130    -2.0610 ha         1 1RR       0.142000
     95 H3          -6.0380    -8.1200    -1.2220 ha         1 1RR       0.142000
     96 N4          -2.5710    -3.9260    -0.5940 ns         1 1RR      -0.427900
@<TRIPOS>BOND
     1     1     2 1   
     2     1     3 2   
     3     1     8 1   
     4     2     4 1   
     5     2    50 1   
     6     4     5 1   
     7     4     6 1   
     8     4     7 1   
     9     5    51 1   
    10     5    52 1   
    11     5    53 1   
    12     6    54 1   
    13     6    55 1   
    14     6    56 1   
    15     7    57 1   
    16     7    58 1   
    17     7    59 1   
    18     8     9 1   
    19     8    60 1   
    20     9    10 1   
    21     9    14 1   
    22     9    61 1   
    23    10    11 1   
    24    10    12 1   
    25    10    13 1   
    26    11    62 1   
    27    11    63 1   
    28    11    64 1   
    29    12    65 1   
    30    12    66 1   
    31    12    67 1   
    32    13    68 1   
    33    13    69 1   
    34    13    70 1   
    35    14    15 2   
    36    14    22 1   
    37    16    20 1   
    38    16    21 2   
    39    16    96 1   
    40    17    18 1   
    41    17    22 1   
    42    17    71 1   
    43    17    72 1   
    44    18    23 1   
    45    18    24 1   
    46    18    73 1   
    47    19    25 ar  
    48    19    27 ar  
    49    19    28 ar  
    50    20    22 1   
    51    20    23 1   
    52    20    74 1   
    53    23    75 1   
    54    23    76 1   
    55    24    25 1   
    56    25    26 ar  
    57    26    29 ar  
    58    26    77 1   
    59    27    30 ar  
    60    27    31 ar  
    61    28    32 ar  
    62    28    78 1   
    63    29    30 ar  
    64    29    33 1   
    65    31    34 ar  
    66    31    79 1   
    67    32    34 ar  
    68    32    80 1   
    69    33    35 ar  
    70    33    36 ar  
    71    34    37 1   
    72    35    38 ar  
    73    35    81 1   
    74    36    39 ar  
    75    36    82 1   
    76    37    40 1   
    77    38    41 ar  
    78    38    83 1   
    79    39    41 ar  
    80    39    84 1   
    81    40    85 1   
    82    40    86 1   
    83    40    87 1   
    84    41    88 1   
    85    42    43 1   
    86    42    44 1   
    87    42    47 1   
    88    42    96 1   
    89    43    44 1   
    90    43    45 1   
    91    43    90 1   
    92    44    91 1   
    93    44    92 1   
    94    45    46 2   
    95    45    93 1   
    96    46    94 1   
    97    46    95 1   
    98    47    48 1   
    99    47    49 1   
   100    89    96 1   
@<TRIPOS>SUBSTRUCTURE
     1 1RR         1 TEMP              0 ****  ****    0 ROOT
