@<TRIPOS>MOLECULE
1RS
   33    36     1     0     0
SMALL
No Charge or Current Charge


@<TRIPOS>ATOM
      1 C2           0.5370     2.3460     0.4940 cc         1 1RS       0.392700
      2 N3          -0.7050     2.8760     0.4390 nd         1 1RS      -0.549100
      3 C4          -1.5320     1.7690     0.2060 ca         1 1RS      -0.025600
      4 C5          -2.9420     1.7190     0.0480 ca         1 1RS       0.427900
      5 N6          -3.6040     0.5480    -0.1890 nb         1 1RS      -0.694000
      6 C7          -2.8580    -0.5790    -0.2740 ca         1 1RS       0.358500
      7 C8          -1.4820    -0.5920    -0.1290 ca         1 1RS      -0.131800
      8 C9          -0.8090     0.6130     0.1240 ca         1 1RS      -0.009200
      9 N10          0.5020     0.9580     0.3140 na         1 1RS      -0.165600
     10 C11          1.6280    -0.0050     0.3330 c6         1 1RS       0.089300
     11 C12          2.8180     0.4830     1.2020 c6         1 1RS      -0.130400
     12 C13          3.9670    -0.5510     1.1730 c6         1 1RS       0.151800
     13 N14          4.3980    -0.8160    -0.2220 n7         1 1RS      -0.848400
     14 C15          3.2960    -1.3090    -1.0840 c6         1 1RS       0.151800
     15 C16          2.1210    -0.3040    -1.1060 c6         1 1RS      -0.130400
     16 C17         -1.0280    -1.9450    -0.2940 cc         1 1RS      -0.231200
     17 C18         -2.1540    -2.7160    -0.5290 cd         1 1RS      -0.169100
     18 N19         -3.2920    -1.8690    -0.5130 na         1 1RS      -0.306400
     19 H1           1.4560     2.8950     0.6580 h5         1 1RS       0.060800
     20 H2          -3.5460     2.6240     0.1090 h4         1 1RS       0.035100
     21 H4           1.2670    -0.9370     0.7870 h1         1 1RS       0.076700
     22 H5           3.1970     1.4470     0.8360 hc         1 1RS       0.057200
     23 H6           2.4900     0.6400     2.2380 hc         1 1RS       0.057200
     24 H7           4.8190    -0.1740     1.7600 h1         1 1RS       0.057950
     25 H8           3.6320    -1.4890     1.6420 h1         1 1RS       0.057950
     26 H9           4.7530     0.0620    -0.6220 hn         1 1RS       0.408000
     27 H11          3.6670    -1.4670    -2.1090 h1         1 1RS       0.057950
     28 H12          2.9400    -2.2810    -0.7090 h1         1 1RS       0.057950
     29 H13          1.3010    -0.7100    -1.7130 hc         1 1RS       0.057200
     30 H14          2.4390     0.6270    -1.5960 hc         1 1RS       0.057200
     31 H15         -0.0110    -2.3270    -0.2630 ha         1 1RS       0.201000
     32 H16         -2.2320    -3.7880    -0.7080 h4         1 1RS       0.215000
     33 H3          -4.2570    -2.1410    -0.6560 hn         1 1RS       0.361000
@<TRIPOS>BOND
     1     1     2 2   
     2     1     9 1   
     3     1    19 1   
     4     2     3 1   
     5     3     4 ar  
     6     3     8 ar  
     7     4     5 ar  
     8     4    20 1   
     9     5     6 ar  
    10     6     7 ar  
    11     6    18 1   
    12     7     8 ar  
    13     7    16 1   
    14     8     9 1   
    15     9    10 1   
    16    10    11 1   
    17    10    15 1   
    18    10    21 1   
    19    11    12 1   
    20    11    22 1   
    21    11    23 1   
    22    12    13 1   
    23    12    24 1   
    24    12    25 1   
    25    13    14 1   
    26    13    26 1   
    27    14    15 1   
    28    14    27 1   
    29    14    28 1   
    30    15    29 1   
    31    15    30 1   
    32    16    17 2   
    33    16    31 1   
    34    17    18 1   
    35    17    32 1   
    36    18    33 1   
@<TRIPOS>SUBSTRUCTURE
     1 1RS         1 TEMP              0 ****  ****    0 ROOT
