@<TRIPOS>MOLECULE
1RS
   33    36     1     0     0
SMALL
abcg2


@<TRIPOS>ATOM
      1 C2           0.5470     2.2190     0.0150 cc         1 1RS       0.392700
      2 N3          -0.6320     2.7640     0.0090 nd         1 1RS      -0.549100
      3 C4          -1.5070     1.7030    -0.0050 ca         1 1RS      -0.025600
      4 C5          -2.9090     1.6960    -0.0140 ca         1 1RS       0.427900
      5 N6          -3.5990     0.5750    -0.0260 nb         1 1RS      -0.694000
      6 C7          -2.8940    -0.5600    -0.0300 ca         1 1RS       0.358500
      7 C8          -1.4900    -0.7190    -0.0220 ca         1 1RS      -0.131800
      8 C9          -0.7940     0.4960    -0.0080 ca         1 1RS      -0.009200
      9 N10          0.5210     0.8530     0.0060 na         1 1RS      -0.165600
     10 C11          1.6790    -0.0310     0.0080 c6         1 1RS       0.089300
     11 C12          2.5440     0.1660     1.2480 c6         1 1RS      -0.130400
     12 C13          3.7270    -0.8030     1.2030 c6         1 1RS       0.151800
     13 N14          4.5190    -0.7130    -0.0120 n7         1 1RS      -0.848400
     14 C15          3.7010    -0.8420    -1.2050 c6         1 1RS       0.151800
     15 C16          2.5170     0.1240    -1.2570 c6         1 1RS      -0.130400
     16 C17         -1.2280    -2.1200    -0.0320 cc         1 1RS      -0.231200
     17 C18         -2.4470    -2.7410    -0.0450 cd         1 1RS      -0.169100
     18 N19         -3.4400    -1.8090    -0.0440 na         1 1RS      -0.306400
     19 H1           1.4780     2.7660     0.0250 h5         1 1RS       0.060800
     20 H2          -3.4640     2.6280    -0.0110 h4         1 1RS       0.035100
     21 H4           1.2780    -1.0460     0.0310 h1         1 1RS       0.076700
     22 H5           2.9170     1.1940     1.2850 hc         1 1RS       0.057200
     23 H6           1.9530     0.0020     2.1530 hc         1 1RS       0.057200
     24 H7           4.3790    -0.6350     2.0620 h1         1 1RS       0.057950
     25 H8           3.3530    -1.8280     1.2930 h1         1 1RS       0.057950
     26 H9           5.0000     0.1780    -0.0310 hn         1 1RS       0.408000
     27 H11          4.3330    -0.7040    -2.0840 h1         1 1RS       0.057950
     28 H12          3.3240    -1.8690    -1.2520 h1         1 1RS       0.057950
     29 H13          1.9060    -0.0700    -2.1420 hc         1 1RS       0.057200
     30 H14          2.8860     1.1520    -1.3350 hc         1 1RS       0.057200
     31 H15         -0.2740    -2.6210    -0.0320 ha         1 1RS       0.201000
     32 H16         -2.6790    -3.7930    -0.0540 h4         1 1RS       0.215000
     33 H3          -4.4280    -2.0060    -0.0500 hn         1 1RS       0.361000
@<TRIPOS>BOND
     1     1     2 2   
     2     1     9 1   
     3     1    19 1   
     4     2     3 1   
     5     3     4 ar  
     6     3     8 ar  
     7     4     5 ar  
     8     4    20 1   
     9     5     6 ar  
    10     6     7 ar  
    11     6    18 1   
    12     7     8 ar  
    13     7    16 1   
    14     8     9 1   
    15     9    10 1   
    16    10    11 1   
    17    10    15 1   
    18    10    21 1   
    19    11    12 1   
    20    11    22 1   
    21    11    23 1   
    22    12    13 1   
    23    12    24 1   
    24    12    25 1   
    25    13    14 1   
    26    13    26 1   
    27    14    15 1   
    28    14    27 1   
    29    14    28 1   
    30    15    29 1   
    31    15    30 1   
    32    16    17 2   
    33    16    31 1   
    34    17    18 1   
    35    17    32 1   
    36    18    33 1   
@<TRIPOS>SUBSTRUCTURE
     1 1RS         1 TEMP              0 ****  ****    0 ROOT
