@<TRIPOS>MOLECULE
1RT
   15    15     1     0     0
SMALL
bcc


@<TRIPOS>ATOM
      1 N1           1.5790    -1.2600    -0.0310 ns         1 1RT      -0.491100
      2 C2           2.2290    -0.0290    -0.0100 c          1 1RT       0.852900
      3 O2           3.4550    -0.0050    -0.0160 o          1 1RT      -0.699500
      4 N3           1.4580     1.0730     0.0160 nc         1 1RT      -0.834100
      5 C4           0.1350     0.9810     0.0210 cd         1 1RT       0.790500
      6 N4          -0.5680     2.1070     0.0480 nv         1 1RT      -0.921800
      7 C5          -0.5650    -0.2830     0.0010 cd         1 1RT      -0.420800
      8 C6           0.2400    -1.3730    -0.0250 cc         1 1RT       0.047600
      9 C21         -2.0670    -0.4540     0.0060 c          1 1RT       0.949800
     10 O22         -2.4970    -1.6200    -0.0100 o          1 1RT      -0.830800
     11 O23         -2.7630     0.5890     0.0270 o          1 1RT      -0.830800
     12 H1          -1.5790     2.0180     0.0500 hn         1 1RT       0.459800
     13 H2          -0.1020     2.9970     0.0590 hn         1 1RT       0.459800
     14 H4          -0.1580    -2.3770    -0.0430 h4         1 1RT       0.161000
     15 H6           2.1480    -2.0930    -0.0530 hn         1 1RT       0.306500
@<TRIPOS>BOND
     1     1     2 1   
     2     1     8 1   
     3     1    15 1   
     4     2     3 2   
     5     2     4 1   
     6     4     5 2   
     7     5     6 1   
     8     5     7 1   
     9     6    12 1   
    10     6    13 1   
    11     7     8 2   
    12     7     9 1   
    13     8    14 1   
    14     9    10 1   
    15     9    11 1   
@<TRIPOS>SUBSTRUCTURE
     1 1RT         1 TEMP              0 ****  ****    0 ROOT
