@<TRIPOS>MOLECULE
1RT
   15    15     1     0     0
SMALL
No Charge or Current Charge


@<TRIPOS>ATOM
      1 N1           1.5720    -1.2260    -0.0440 ns         1 1RT      -0.537600
      2 C2           2.1920    -0.0190     0.0110 c          1 1RT       0.710400
      3 O2           3.4030     0.0700    -0.0120 o          1 1RT      -0.624000
      4 N3           1.3940     1.0780     0.0960 nc         1 1RT      -0.834100
      5 C4           0.1030     0.9460     0.1220 cd         1 1RT       0.790500
      6 N4          -0.5150     2.1050     0.2270 nv         1 1RT      -1.032200
      7 C5          -0.5970    -0.2920     0.0410 cd         1 1RT      -0.420800
      8 C6           0.2030    -1.4160    -0.0360 cc         1 1RT      -0.002400
      9 C21         -2.0650    -0.4280     0.0190 c          1 1RT       0.739200
     10 O22         -2.5380    -1.5520    -0.0280 o          1 1RT      -0.725500
     11 O23         -2.7580     0.5770     0.0170 o          1 1RT      -0.725500
     12 H1          -1.5100     2.0220     0.0290 hn         1 1RT       0.515000
     13 H2          -0.0240     2.8770    -0.1970 hn         1 1RT       0.515000
     14 H4          -0.1200    -2.4550    -0.1030 h4         1 1RT       0.211000
     15 H6           2.2040    -2.0170    -0.1040 hn         1 1RT       0.420000
@<TRIPOS>BOND
     1     1     2 1   
     2     1     8 1   
     3     1    15 1   
     4     2     3 2   
     5     2     4 1   
     6     4     5 2   
     7     5     6 1   
     8     5     7 1   
     9     6    12 1   
    10     6    13 1   
    11     7     8 2   
    12     7     9 1   
    13     8    14 1   
    14     9    10 1   
    15     9    11 1   
@<TRIPOS>SUBSTRUCTURE
     1 1RT         1 TEMP              0 ****  ****    0 ROOT
