@<TRIPOS>MOLECULE
1RU
   55    59     1     0     0
SMALL
No Charge or Current Charge


@<TRIPOS>ATOM
      1 F12         11.0050    -1.7880    22.9330 f          1 1RU      -0.159000
      2 C5           9.8470    -1.5450    22.2740 ca         1 1RU       0.172000
      3 C6           9.3350    -0.2420    22.2670 ca         1 1RU      -0.129000
      4 C4           8.1570     0.0330    21.5610 ca         1 1RU      -0.082000
      5 C2           7.4770    -0.9930    20.8840 ca         1 1RU       0.126000
      6 Cl2          6.0370    -0.5290    19.9710 cl         1 1RU      -0.197000
      7 C3           9.1800    -2.5890    21.5990 ca         1 1RU       0.098000
      8 Cl1          9.9520    -4.1840    21.6090 cl         1 1RU      -0.145000
      9 C1           7.9560    -2.3310    20.9130 ca         1 1RU      -0.072300
     10 C7           7.1630    -3.4360    20.1800 c3         1 1RU       0.232600
     11 C8           7.7780    -3.7690    18.8080 c3         1 1RU      -0.087100
     12 O9           7.1240    -4.6660    20.9340 os         1 1RU      -0.351100
     13 C13          6.5510    -4.7950    22.2000 ca         1 1RU       0.013100
     14 C18          5.6740    -3.8620    22.7920 ca         1 1RU       0.072100
     15 O19          5.1990    -2.6820    22.2520 os         1 1RU      -0.185200
     16 C20          4.3720    -2.1400    23.2340 cc         1 1RU      -0.077900
     17 C21          4.3340    -2.9790    24.3300 cd         1 1RU      -0.001400
     18 C17          5.1740    -4.1060    24.0460 ca         1 1RU      -0.182800
     19 C16          5.5110    -5.2720    24.7520 ca         1 1RU       0.407900
     20 N15          6.3390    -6.1990    24.2120 nb         1 1RU      -0.733000
     21 C14          6.8260    -5.9470    22.9910 ca         1 1RU       0.591900
     22 N22          7.6200    -6.9590    22.5980 nv         1 1RU      -1.038900
     23 C23          3.5410    -2.6290    25.4810 cd         1 1RU      -0.149800
     24 C27          3.4360    -3.3750    26.6180 cc         1 1RU      -0.143000
     25 N26          2.5720    -2.6260    27.4170 na         1 1RU       0.119800
     26 N25          2.1440    -1.4490    26.8140 nc         1 1RU      -0.524800
     27 C24          2.7460    -1.4750    25.6410 cd         1 1RU       0.253900
     28 C28          2.1470    -3.0370    28.7810 c6         1 1RU       0.107300
     29 C33          2.6060    -2.0180    29.8570 c6         1 1RU      -0.126900
     30 C32          2.1320    -2.4560    31.2610 c6         1 1RU       0.148800
     31 N31          0.6610    -2.6520    31.2840 n7         1 1RU      -0.845400
     32 C30          0.1950    -3.6550    30.2960 c6         1 1RU       0.148800
     33 C29          0.6130    -3.2520    28.8640 c6         1 1RU      -0.126900
     34 H1           9.8620     0.5520    22.7890 ha         1 1RU       0.142000
     35 H2           7.7690     1.0490    21.5310 ha         1 1RU       0.138000
     36 H3           6.1330    -3.1120    19.9940 h1         1 1RU       0.073700
     37 H4           7.1890    -4.5430    18.3020 hc         1 1RU       0.054367
     38 H5           7.7890    -2.8780    18.1710 hc         1 1RU       0.054367
     39 H6           8.8080    -4.1290    18.9120 hc         1 1RU       0.054367
     40 H7           3.8940    -1.1900    23.0230 h4         1 1RU       0.241000
     41 H8           5.1220    -5.4890    25.7430 h4         1 1RU       0.022100
     42 H9           7.5090    -7.8270    23.1080 hn         1 1RU       0.473500
     43 H10          7.8320    -7.0210    21.6090 hn         1 1RU       0.473500
     44 H11          3.8630    -4.3150    26.9340 h4         1 1RU       0.156000
     45 H12          2.5890    -0.6600    24.9460 h4         1 1RU       0.037100
     46 H13          2.6330    -3.9990    29.0020 h1         1 1RU       0.058700
     47 H14          3.7000    -1.9280    29.8470 hc         1 1RU       0.063700
     48 H15          2.2060    -1.0200    29.6300 hc         1 1RU       0.063700
     49 H16          2.6340    -3.3950    31.5430 h1         1 1RU       0.056700
     50 H17          2.4170    -1.6950    32.0020 h1         1 1RU       0.056700
     51 H18          0.2110    -1.7530    31.0700 hn         1 1RU       0.408000
     52 H20         -0.9010    -3.7490    30.3490 h1         1 1RU       0.056700
     53 H21          0.6220    -4.6410    30.5400 h1         1 1RU       0.056700
     54 H22          0.0840    -2.3340    28.5720 hc         1 1RU       0.063700
     55 H23          0.3040    -4.0310    28.1540 hc         1 1RU       0.063700
@<TRIPOS>BOND
     1     1     2 1   
     2     2     3 ar  
     3     2     7 ar  
     4     3     4 ar  
     5     3    34 1   
     6     4     5 ar  
     7     4    35 1   
     8     5     6 1   
     9     5     9 ar  
    10     7     8 1   
    11     7     9 ar  
    12     9    10 1   
    13    10    11 1   
    14    10    12 1   
    15    10    36 1   
    16    11    37 1   
    17    11    38 1   
    18    11    39 1   
    19    12    13 1   
    20    13    14 ar  
    21    13    21 ar  
    22    14    15 1   
    23    14    18 ar  
    24    15    16 1   
    25    16    17 2   
    26    16    40 1   
    27    17    18 1   
    28    17    23 1   
    29    18    19 ar  
    30    19    20 ar  
    31    19    41 1   
    32    20    21 ar  
    33    21    22 1   
    34    22    42 1   
    35    22    43 1   
    36    23    24 2   
    37    23    27 1   
    38    24    25 1   
    39    24    44 1   
    40    25    26 1   
    41    25    28 1   
    42    26    27 2   
    43    27    45 1   
    44    28    29 1   
    45    28    33 1   
    46    28    46 1   
    47    29    30 1   
    48    29    47 1   
    49    29    48 1   
    50    30    31 1   
    51    30    49 1   
    52    30    50 1   
    53    31    32 1   
    54    31    51 1   
    55    32    33 1   
    56    32    52 1   
    57    32    53 1   
    58    33    54 1   
    59    33    55 1   
@<TRIPOS>SUBSTRUCTURE
     1 1RU         1 TEMP              0 ****  ****    0 ROOT
