@<TRIPOS>MOLECULE
1RU
   55    59     1     0     0
SMALL
abcg2


@<TRIPOS>ATOM
      1 F12         10.4080    -2.2350    23.8670 f          1 1RU      -0.159000
      2 C5           9.4620    -1.8420    22.9940 ca         1 1RU       0.172000
      3 C6           9.0200    -0.5370    23.0330 ca         1 1RU      -0.129000
      4 C4           8.0630    -0.1360    22.1140 ca         1 1RU      -0.082000
      5 C2           7.5510    -1.0540    21.2100 ca         1 1RU       0.126000
      6 CL2          6.3780    -0.4460    20.0600 cl         1 1RU      -0.197000
      7 C3           8.9660    -2.7610    22.0750 ca         1 1RU       0.098000
      8 CL1          9.6830    -4.3420    22.0840 cl         1 1RU      -0.145000
      9 C1           7.9540    -2.3960    21.1780 ca         1 1RU      -0.072300
     10 C7           7.3080    -3.3580    20.1930 c3         1 1RU       0.232600
     11 C8           8.1560    -3.5790    18.9530 c3         1 1RU      -0.087100
     12 O9           7.0400    -4.6670    20.7410 os         1 1RU      -0.351100
     13 C13          6.3840    -4.7960    21.9300 ca         1 1RU       0.013100
     14 C18          5.4940    -3.9120    22.5070 ca         1 1RU       0.072100
     15 O19          5.0530    -2.7290    22.0030 os         1 1RU      -0.185200
     16 C20          4.2060    -2.1870    22.9560 cc         1 1RU      -0.077900
     17 C21          4.0780    -2.9900    24.0400 cd         1 1RU      -0.001400
     18 C17          4.9120    -4.1510    23.7650 ca         1 1RU      -0.182800
     19 C16          5.2040    -5.3520    24.3930 ca         1 1RU       0.407900
     20 N15          6.0130    -6.2530    23.8290 nb         1 1RU      -0.733000
     21 C14          6.5910    -5.9970    22.6470 ca         1 1RU       0.591900
     22 N22          7.4480    -6.9500    22.1420 nv         1 1RU      -1.038900
     23 C23          3.2810    -2.7320    25.2270 cd         1 1RU      -0.149800
     24 C27          3.4570    -3.2490    26.5030 cc         1 1RU      -0.143000
     25 N26          2.5070    -2.7030    27.2920 na         1 1RU       0.119800
     26 N25          1.7110    -1.8550    26.6100 nc         1 1RU      -0.524800
     27 C24          2.1710    -1.8680    25.3630 cd         1 1RU       0.253900
     28 C28          2.3320    -2.9240    28.7270 c6         1 1RU       0.107300
     29 C33          2.6140    -1.6520    29.5280 c6         1 1RU      -0.126900
     30 C32          2.4100    -1.9170    31.0240 c6         1 1RU       0.148800
     31 N31          1.0940    -2.4730    31.3510 n7         1 1RU      -0.845400
     32 C30          0.8040    -3.6750    30.5660 c6         1 1RU       0.148800
     33 C29          0.9450    -3.4750    29.0530 c6         1 1RU      -0.126900
     34 H1           9.4310     0.1500    23.7590 ha         1 1RU       0.142000
     35 H2           7.7130     0.8860    22.1020 ha         1 1RU       0.138000
     36 H3           6.3550    -2.9260    19.9010 h1         1 1RU       0.073700
     37 H4           7.6370    -4.2540    18.2710 hc         1 1RU       0.054367
     38 H5           8.3160    -2.6270    18.4470 hc         1 1RU       0.054367
     39 H6           9.1240    -4.0070    19.2110 hc         1 1RU       0.054367
     40 H7           3.7920    -1.2260    22.7050 h4         1 1RU       0.241000
     41 H8           4.7810    -5.6140    25.3540 h4         1 1RU       0.022100
     42 H9           7.3000    -7.8830    22.4930 hn         1 1RU       0.473500
     43 H10          7.6450    -6.8960    21.1550 hn         1 1RU       0.473500
     44 H11          4.1830    -3.9380    26.9000 h4         1 1RU       0.156000
     45 H12          1.6920    -1.2720    24.6000 h4         1 1RU       0.037100
     46 H13          3.0800    -3.6760    28.9880 h1         1 1RU       0.058700
     47 H14          3.6350    -1.3120    29.3380 hc         1 1RU       0.063700
     48 H15          1.9310    -0.8640    29.1990 hc         1 1RU       0.063700
     49 H16          3.1670    -2.6280    31.3700 h1         1 1RU       0.056700
     50 H17          2.5510    -0.9940    31.5880 h1         1 1RU       0.056700
     51 H18          0.3840    -1.7730    31.1530 hn         1 1RU       0.408000
     52 H20         -0.2060    -4.0140    30.8040 h1         1 1RU       0.056700
     53 H21          1.4940    -4.4610    30.8930 h1         1 1RU       0.056700
     54 H22          0.1880    -2.7680    28.7060 hc         1 1RU       0.063700
     55 H23          0.7870    -4.4210    28.5280 hc         1 1RU       0.063700
@<TRIPOS>BOND
     1     1     2 1   
     2     2     3 ar  
     3     2     7 ar  
     4     3     4 ar  
     5     3    34 1   
     6     4     5 ar  
     7     4    35 1   
     8     5     6 1   
     9     5     9 ar  
    10     7     8 1   
    11     7     9 ar  
    12     9    10 1   
    13    10    11 1   
    14    10    12 1   
    15    10    36 1   
    16    11    37 1   
    17    11    38 1   
    18    11    39 1   
    19    12    13 1   
    20    13    14 ar  
    21    13    21 ar  
    22    14    15 1   
    23    14    18 ar  
    24    15    16 1   
    25    16    17 2   
    26    16    40 1   
    27    17    18 1   
    28    17    23 1   
    29    18    19 ar  
    30    19    20 ar  
    31    19    41 1   
    32    20    21 ar  
    33    21    22 1   
    34    22    42 1   
    35    22    43 1   
    36    23    24 2   
    37    23    27 1   
    38    24    25 1   
    39    24    44 1   
    40    25    26 1   
    41    25    28 1   
    42    26    27 2   
    43    27    45 1   
    44    28    29 1   
    45    28    33 1   
    46    28    46 1   
    47    29    30 1   
    48    29    47 1   
    49    29    48 1   
    50    30    31 1   
    51    30    49 1   
    52    30    50 1   
    53    31    32 1   
    54    31    51 1   
    55    32    33 1   
    56    32    52 1   
    57    32    53 1   
    58    33    54 1   
    59    33    55 1   
@<TRIPOS>SUBSTRUCTURE
     1 1RU         1 TEMP              0 ****  ****    0 ROOT
