@<TRIPOS>MOLECULE
1RV
   27    28     1     0     0
SMALL
No Charge or Current Charge


@<TRIPOS>ATOM
      1 N01          4.4210    -2.6270     0.0070 nt         1 1RV      -0.590000
      2 C01          3.3000    -1.8830     0.0070 c          1 1RV       0.655700
      3 O01          2.2130    -2.4400     0.0070 o          1 1RV      -0.658100
      4 C02          3.4860    -0.4040     0.0080 cc         1 1RV      -0.268600
      5 C05          2.4460     0.5020     0.0080 cd         1 1RV      -0.011400
      6 N02          1.1170     0.0970     0.0070 ns         1 1RV      -0.374100
      7 C06         -0.0340     0.8630     0.0070 c          1 1RV       0.610100
      8 O02         -0.0200     2.0880     0.0070 o          1 1RV      -0.574100
      9 C07         -1.3320     0.0410     0.0060 c3         1 1RV      -0.047400
     10 S01         -2.8870     1.0690     0.0040 ss         1 1RV      -0.245300
     11 C08         -4.1430    -0.1590     0.0030 cc         1 1RV       0.500800
     12 N03         -5.4660     0.1420     0.0020 na         1 1RV      -0.185700
     13 N04         -6.1970    -1.0140     0.0020 nc         1 1RV      -0.525800
     14 C09         -5.2470    -1.9550     0.0030 cd         1 1RV       0.530900
     15 N05         -3.9500    -1.4540     0.0040 nd         1 1RV      -0.720000
     16 S02          3.0230     2.1900     0.0080 ss         1 1RV       0.312000
     17 C04          4.6980     1.6130     0.0090 cd         1 1RV      -0.293000
     18 C03          4.7600     0.2430     0.0080 cc         1 1RV      -0.083000
     19 H1           4.3420    -3.6310     0.0070 hn         1 1RV       0.318000
     20 H2           5.3230    -2.1790     0.0080 hn         1 1RV       0.318000
     21 H3           0.9500    -0.9060     0.0070 hn         1 1RV       0.382500
     22 H4          -1.3230    -0.6020    -0.8830 h1         1 1RV       0.110200
     23 H5          -1.3250    -0.6010     0.8950 h1         1 1RV       0.110200
     24 H6          -5.8750     1.0720     0.0010 hn         1 1RV       0.386000
     25 H7          -5.4500    -3.0210     0.0030 h5         1 1RV       0.065100
     26 H8           5.5160     2.3220     0.0090 h4         1 1RV       0.153000
     27 H9           5.7020    -0.2970     0.0090 ha         1 1RV       0.125000
@<TRIPOS>BOND
     1     1     2 1   
     2     1    19 1   
     3     1    20 1   
     4     2     3 2   
     5     2     4 1   
     6     4     5 2   
     7     4    18 1   
     8     5     6 1   
     9     5    16 1   
    10     6     7 1   
    11     6    21 1   
    12     7     8 2   
    13     7     9 1   
    14     9    10 1   
    15     9    22 1   
    16     9    23 1   
    17    10    11 1   
    18    11    12 1   
    19    11    15 2   
    20    12    13 1   
    21    12    24 1   
    22    13    14 2   
    23    14    15 1   
    24    14    25 1   
    25    16    17 1   
    26    17    18 2   
    27    17    26 1   
    28    18    27 1   
@<TRIPOS>SUBSTRUCTURE
     1 1RV         1 TEMP              0 ****  ****    0 ROOT
