@<TRIPOS>MOLECULE
1RV
   27    28     1     0     0
SMALL
abcg2


@<TRIPOS>ATOM
      1 N01          4.5930    -2.5680    -0.0160 nt         1 1RV      -0.590000
      2 C01          3.4280    -1.9140    -0.0050 c          1 1RV       0.655700
      3 O01          2.3460    -2.5080    -0.0090 o          1 1RV      -0.658100
      4 C02          3.4890    -0.4400     0.0080 cc         1 1RV      -0.268600
      5 C05          2.3470     0.3350     0.0140 cd         1 1RV      -0.011400
      6 N02          1.0630    -0.1540     0.0140 ns         1 1RV      -0.374100
      7 C06         -0.0500     0.6100     0.0130 c          1 1RV       0.610100
      8 O02         -0.0160     1.8260     0.0110 o          1 1RV      -0.574100
      9 C07         -1.3400    -0.1700     0.0160 c3         1 1RV      -0.047400
     10 S01         -2.6850     1.0400    -0.0110 ss         1 1RV      -0.245300
     11 C08         -4.0180    -0.0770    -0.0010 cc         1 1RV       0.500800
     12 N03         -5.2930     0.3270    -0.0370 na         1 1RV      -0.185700
     13 N04         -6.1150    -0.7310    -0.0150 nc         1 1RV      -0.525800
     14 C09         -5.2810    -1.7360     0.0330 cd         1 1RV       0.530900
     15 N05         -3.9730    -1.3890     0.0460 nd         1 1RV      -0.720000
     16 S02          2.7030     2.0190     0.0250 ss         1 1RV       0.312000
     17 C04          4.3940     1.6960     0.0230 cd         1 1RV      -0.293000
     18 C03          4.6650     0.3710     0.0110 cc         1 1RV      -0.083000
     19 H1           4.6000    -3.5750    -0.0270 hn         1 1RV       0.318000
     20 H2           5.4850    -2.1060    -0.0170 hn         1 1RV       0.318000
     21 H3           1.0190    -1.1740     0.0130 hn         1 1RV       0.382500
     22 H4          -1.3970    -0.8250    -0.8550 h1         1 1RV       0.110200
     23 H5          -1.4070    -0.7950     0.9080 h1         1 1RV       0.110200
     24 H6          -5.6660     1.2620    -0.0780 hn         1 1RV       0.386000
     25 H7          -5.6170    -2.7600     0.0640 h5         1 1RV       0.065100
     26 H8           5.0970     2.5140     0.0280 h4         1 1RV       0.153000
     27 H9           5.6760    -0.0080     0.0070 ha         1 1RV       0.125000
@<TRIPOS>BOND
     1     1     2 1   
     2     1    19 1   
     3     1    20 1   
     4     2     3 2   
     5     2     4 1   
     6     4     5 2   
     7     4    18 1   
     8     5     6 1   
     9     5    16 1   
    10     6     7 1   
    11     6    21 1   
    12     7     8 2   
    13     7     9 1   
    14     9    10 1   
    15     9    22 1   
    16     9    23 1   
    17    10    11 1   
    18    11    12 1   
    19    11    15 2   
    20    12    13 1   
    21    12    24 1   
    22    13    14 2   
    23    14    15 1   
    24    14    25 1   
    25    16    17 1   
    26    17    18 2   
    27    17    26 1   
    28    18    27 1   
@<TRIPOS>SUBSTRUCTURE
     1 1RV         1 TEMP              0 ****  ****    0 ROOT
