@<TRIPOS>MOLECULE
1S1
   38    39     1     0     0
SMALL
abcg2


@<TRIPOS>ATOM
      1 C3          -0.3850    -0.2200     0.0120 ca         1 1S1       0.451900
      2 C4           1.8250    -0.0970     0.0420 ca         1 1S1       0.328500
      3 C7           0.6370     1.7760    -0.0970 ca         1 1S1       0.454900
      4 N10          5.2380    -0.9880     0.1520 nc         1 1S1      -0.700000
      5 C12          4.5520    -2.1590     0.2090 cc         1 1S1       0.515900
      6 N13          0.5620     3.1000    -0.1780 nu         1 1S1      -0.907100
      7 C15         -2.8570    -0.5000     0.0110 c3         1 1S1       0.342300
      8 C16         -3.7600    -1.7100     0.3290 c3         1 1S1      -0.084400
      9 C17         -5.2490    -1.4140     0.3210 c3         1 1S1      -0.090100
     10 C18         -3.2110     0.1600    -1.3380 c3         1 1S1      -0.084400
     11 C19         -3.1430    -0.8010    -2.5140 c3         1 1S1      -0.090100
     12 N21         -3.2770     1.2430     1.9310 n1         1 1S1      -0.452000
     13 C20         -3.0580     0.4950     1.0850 c1         1 1S1       0.299900
     14 N1          -1.4900    -0.9810     0.0520 nu         1 1S1      -0.920100
     15 N5          -0.5120     1.0910    -0.0750 nb         1 1S1      -0.356000
     16 C14          1.7060     3.9780    -0.2190 c3         1 1S1       0.228100
     17 N6           1.8540     1.2140    -0.0410 nb         1 1S1      -0.348000
     18 N2           0.7840    -0.8880     0.0750 nb         1 1S1      -0.289000
     19 N8           3.0880    -0.7050     0.1000 na         1 1S1      -0.091200
     20 N11          3.2540    -2.0340     0.1800 nd         1 1S1      -0.484800
     21 C9           4.2920    -0.0940     0.0840 cd         1 1S1       0.460400
     22 H1           5.0310    -3.1240     0.2720 h5         1 1S1       0.066100
     23 H2          -0.3610     3.4970    -0.2290 hn         1 1S1       0.516000
     24 H3          -3.5340    -2.4870    -0.4060 hc         1 1S1       0.060450
     25 H4          -3.4650    -2.1080     1.3020 hc         1 1S1       0.060450
     26 H5          -5.6050    -1.1180    -0.6660 hc         1 1S1       0.041033
     27 H6          -5.7990    -2.3090     0.6100 hc         1 1S1       0.041033
     28 H7          -5.5150    -0.6260     1.0260 hc         1 1S1       0.041033
     29 H8          -4.2120     0.5890    -1.2600 hc         1 1S1       0.060450
     30 H9          -2.5300     0.9950    -1.4950 hc         1 1S1       0.060450
     31 H10         -3.2630    -0.2500    -3.4460 hc         1 1S1       0.041033
     32 H11         -2.1830    -1.3160    -2.5610 hc         1 1S1       0.041033
     33 H12         -3.9290    -1.5560    -2.4790 hc         1 1S1       0.041033
     34 H13         -1.3470    -1.9710     0.1760 hn         1 1S1       0.523000
     35 H14          1.3430     5.0000    -0.2460 h1         1 1S1       0.046700
     36 H15          2.3370     3.8590     0.6620 h1         1 1S1       0.046700
     37 H16          2.3190     3.8060    -1.1040 h1         1 1S1       0.046700
     38 H17          4.4080     0.9760     0.0240 h5         1 1S1       0.083100
@<TRIPOS>BOND
     1     1    14 1   
     2     1    15 ar  
     3     1    18 ar  
     4     2    17 ar  
     5     2    18 ar  
     6     2    19 1   
     7     3     6 1   
     8     3    15 ar  
     9     3    17 ar  
    10     4     5 1   
    11     4    21 2   
    12     5    20 2   
    13     5    22 1   
    14     6    16 1   
    15     6    23 1   
    16     7     8 1   
    17     7    10 1   
    18     7    13 1   
    19     7    14 1   
    20     8     9 1   
    21     8    24 1   
    22     8    25 1   
    23     9    26 1   
    24     9    27 1   
    25     9    28 1   
    26    10    11 1   
    27    10    29 1   
    28    10    30 1   
    29    11    31 1   
    30    11    32 1   
    31    11    33 1   
    32    12    13 3   
    33    14    34 1   
    34    16    35 1   
    35    16    36 1   
    36    16    37 1   
    37    19    20 1   
    38    19    21 1   
    39    21    38 1   
@<TRIPOS>SUBSTRUCTURE
     1 1S1         1 TEMP              0 ****  ****    0 ROOT
