@<TRIPOS>MOLECULE
1S1
   38    39     1     0     0
SMALL
No Charge or Current Charge


@<TRIPOS>ATOM
      1 C3          -0.3820    -0.1050     0.0470 ca         1 1S1       0.451900
      2 C4           1.9140    -0.1300    -0.0360 ca         1 1S1       0.328500
      3 C7           0.7210     1.8260    -0.1730 ca         1 1S1       0.454900
      4 N10          5.1530    -1.1820     0.6600 nc         1 1S1      -0.700000
      5 C12          4.6810    -2.1460    -0.1960 cc         1 1S1       0.515900
      6 N13          0.6870     3.1990    -0.2980 nu         1 1S1      -0.907100
      7 C15         -2.9710    -0.4270     0.1080 c3         1 1S1       0.342300
      8 C16         -3.8110    -1.7040     0.4440 c3         1 1S1      -0.084400
      9 C17         -5.3540    -1.5600     0.3720 c3         1 1S1      -0.090100
     10 C18         -3.2910     0.1290    -1.3220 c3         1 1S1      -0.084400
     11 C19         -3.0610    -0.8450    -2.5050 c3         1 1S1      -0.090100
     12 N21         -3.5160     1.4330     1.9340 n1         1 1S1      -0.452000
     13 C20         -3.2610     0.6240     1.1310 c1         1 1S1       0.299900
     14 N1          -1.5450    -0.8530     0.1590 nu         1 1S1      -0.920100
     15 N5          -0.4610     1.2240    -0.0720 nb         1 1S1      -0.356000
     16 C14          1.8350     4.1160    -0.4310 c3         1 1S1       0.228100
     17 N6           1.9160     1.2190    -0.1630 nb         1 1S1      -0.348000
     18 N2           0.7510    -0.8180     0.0710 nb         1 1S1      -0.289000
     19 N8           3.1240    -0.8280    -0.0250 na         1 1S1      -0.091200
     20 N11          3.4440    -2.0040    -0.6470 nd         1 1S1      -0.484800
     21 C9           4.1390    -0.3360     0.7720 cd         1 1S1       0.460400
     22 H1           5.3250    -2.9780    -0.4600 h5         1 1S1       0.066100
     23 H2          -0.2490     3.6060    -0.2940 hn         1 1S1       0.516000
     24 H3          -3.5180    -2.5220    -0.2250 hc         1 1S1       0.060450
     25 H4          -3.5500    -2.0420     1.4550 hc         1 1S1       0.060450
     26 H5          -5.6860    -1.3300    -0.6470 hc         1 1S1       0.041033
     27 H6          -5.8320    -2.5000     0.6720 hc         1 1S1       0.041033
     28 H7          -5.7170    -0.7720     1.0440 hc         1 1S1       0.041033
     29 H8          -4.3340     0.4670    -1.3550 hc         1 1S1       0.060450
     30 H9          -2.6940     1.0290    -1.5070 hc         1 1S1       0.060450
     31 H10         -3.2740    -0.3400    -3.4550 hc         1 1S1       0.041033
     32 H11         -2.0220    -1.1940    -2.5360 hc         1 1S1       0.041033
     33 H12         -3.7200    -1.7180    -2.4380 hc         1 1S1       0.041033
     34 H13         -1.3750    -1.8530     0.2520 hn         1 1S1       0.523000
     35 H14          1.4910     5.1560    -0.5120 h1         1 1S1       0.046700
     36 H15          2.4950     4.0380     0.4450 h1         1 1S1       0.046700
     37 H16          2.4200     3.8740    -1.3290 h1         1 1S1       0.046700
     38 H17          4.0740     0.5700     1.3640 h5         1 1S1       0.083100
@<TRIPOS>BOND
     1     1    14 1   
     2     1    15 ar  
     3     1    18 ar  
     4     2    17 ar  
     5     2    18 ar  
     6     2    19 1   
     7     3     6 1   
     8     3    15 ar  
     9     3    17 ar  
    10     4     5 1   
    11     4    21 2   
    12     5    20 2   
    13     5    22 1   
    14     6    16 1   
    15     6    23 1   
    16     7     8 1   
    17     7    10 1   
    18     7    13 1   
    19     7    14 1   
    20     8     9 1   
    21     8    24 1   
    22     8    25 1   
    23     9    26 1   
    24     9    27 1   
    25     9    28 1   
    26    10    11 1   
    27    10    29 1   
    28    10    30 1   
    29    11    31 1   
    30    11    32 1   
    31    11    33 1   
    32    12    13 3   
    33    14    34 1   
    34    16    35 1   
    35    16    36 1   
    36    16    37 1   
    37    19    20 1   
    38    19    21 1   
    39    21    38 1   
@<TRIPOS>SUBSTRUCTURE
     1 1S1         1 TEMP              0 ****  ****    0 ROOT
