@<TRIPOS>MOLECULE
1S2
   38    40     1     0     0
SMALL
abcg2


@<TRIPOS>ATOM
      1 C02        -26.0180     4.1360     0.5230 ca         1 1S2       0.406900
      2 C04        -28.2670     4.4310     0.7310 ca         1 1S2       0.158000
      3 C05        -28.0680     5.7750     1.0600 ca         1 1S2      -0.253000
      4 C06        -26.7500     6.1750     1.0870 ca         1 1S2       0.253000
      5 C08        -31.4300     2.6460     0.4370 cc         1 1S2      -0.149300
      6 C09        -30.0610     2.5950     0.2610 cd         1 1S2      -0.136300
      7 C10        -29.6160     3.8720     0.6760 cd         1 1S2       0.181000
      8 C12        -29.3660    -0.9910     0.4800 ca         1 1S2      -0.106500
      9 C13        -29.1280    -1.9960     1.4100 ca         1 1S2      -0.113500
     10 C14        -28.5830    -1.6830     2.6470 ca         1 1S2      -0.115000
     11 C15        -28.2780    -0.3600     2.9440 ca         1 1S2      -0.113500
     12 C16        -28.5180     0.6400     2.0120 ca         1 1S2      -0.106500
     13 C17        -29.0630     0.3380     0.7650 ca         1 1S2      -0.071300
     14 C19        -32.4780     1.6220     0.2010 c3         1 1S2      -0.029800
     15 C20        -29.3050     1.4160    -0.2660 c3         1 1S2       0.049200
     16 N01        -25.7220     5.4070     0.8310 nb         1 1S2      -0.249000
     17 N03        -27.2500     3.6220     0.4680 nb         1 1S2      -0.263000
     18 N07        -31.7110     3.8800     0.9110 na         1 1S2       0.150800
     19 N11        -30.6370     4.6280     1.0610 nc         1 1S2      -0.507800
     20 N22        -24.9950     3.3190     0.2410 nv         1 1S2      -1.074900
     21 CL1        -26.3850     7.8220     1.4890 cl         1 1S2      -0.169000
     22 H1         -28.8840     6.4460     1.2760 ha         1 1S2       0.163000
     23 H3         -29.3740    -3.0220     1.1680 ha         1 1S2       0.109500
     24 H4         -28.3980    -2.4620     3.3760 ha         1 1S2       0.110000
     25 H5         -27.8520    -0.1050     3.9060 ha         1 1S2       0.109500
     26 H6         -28.2790     1.6670     2.2590 ha         1 1S2       0.114500
     27 H10        -32.9710     1.3290     1.1300 hc         1 1S2       0.051700
     28 H11        -33.2510     1.9810    -0.4800 hc         1 1S2       0.051700
     29 H12        -32.0410     0.7260    -0.2350 hc         1 1S2       0.051700
     30 H13        -29.8530     0.9830    -1.1060 hc         1 1S2       0.062700
     31 H14        -28.3470     1.7510    -0.6640 hc         1 1S2       0.062700
     32 H15        -25.1610     2.3440     0.0670 hn         1 1S2       0.507500
     33 H16        -24.0480     3.6410     0.3300 hn         1 1S2       0.507500
     34 C18        -33.0180     4.3870     1.2570 c3         1 1S2       0.066900
     35 H2         -29.7970    -1.2450    -0.4820 ha         1 1S2       0.114500
     36 H7         -32.9220     5.4380     1.5120 h1         1 1S2       0.059367
     37 H8         -33.7010     4.2850     0.4160 h1         1 1S2       0.059367
     38 H9         -33.4280     3.8480     2.1110 h1         1 1S2       0.059367
@<TRIPOS>BOND
     1     1    16 ar  
     2     1    17 ar  
     3     1    20 1   
     4     2     3 ar  
     5     2     7 1   
     6     2    17 ar  
     7     3     4 ar  
     8     3    22 1   
     9     4    16 ar  
    10     4    21 1   
    11     5     6 2   
    12     5    14 1   
    13     5    18 1   
    14     6     7 1   
    15     6    15 1   
    16     7    19 2   
    17     8     9 ar  
    18     8    13 ar  
    19     8    35 1   
    20     9    10 ar  
    21     9    23 1   
    22    10    11 ar  
    23    10    24 1   
    24    11    12 ar  
    25    11    25 1   
    26    12    13 ar  
    27    12    26 1   
    28    13    15 1   
    29    14    27 1   
    30    14    28 1   
    31    14    29 1   
    32    15    30 1   
    33    15    31 1   
    34    18    19 1   
    35    18    34 1   
    36    20    32 1   
    37    20    33 1   
    38    34    36 1   
    39    34    37 1   
    40    34    38 1   
@<TRIPOS>SUBSTRUCTURE
     1 1S2         1 TEMP              0 ****  ****    0 ROOT
