@<TRIPOS>MOLECULE
1S2
   38    40     1     0     0
SMALL
No Charge or Current Charge


@<TRIPOS>ATOM
      1 C02        -26.0320     4.0170     0.4660 ca         1 1S2       0.406900
      2 C04        -28.2870     4.3860     0.7340 ca         1 1S2       0.158000
      3 C05        -27.9740     5.7030     1.1460 ca         1 1S2      -0.253000
      4 C06        -26.6250     6.0850     1.1810 ca         1 1S2       0.253000
      5 C08        -31.5570     2.6600     0.4340 cc         1 1S2      -0.149300
      6 C09        -30.1990     2.6250     0.2520 cd         1 1S2      -0.136300
      7 C10        -29.6990     3.8980     0.6840 cd         1 1S2       0.181000
      8 C12        -29.1300    -0.9860     0.4110 ca         1 1S2      -0.106500
      9 C13        -28.7810    -1.9660     1.3570 ca         1 1S2      -0.113500
     10 C14        -28.3540    -1.5850     2.6400 ca         1 1S2      -0.115000
     11 C15        -28.2750    -0.2240     2.9750 ca         1 1S2      -0.113500
     12 C16        -28.6230     0.7560     2.0300 ca         1 1S2      -0.106500
     13 C17        -29.0560     0.3840     0.7390 ca         1 1S2      -0.071300
     14 C19        -32.5990     1.6010     0.1680 c3         1 1S2      -0.029800
     15 C20        -29.4370     1.4360    -0.3020 c3         1 1S2       0.049200
     16 N01        -25.6380     5.2400     0.8400 nb         1 1S2      -0.249000
     17 N03        -27.2840     3.5440     0.3950 nb         1 1S2      -0.263000
     18 N07        -31.8090     3.9320     0.9340 na         1 1S2       0.150800
     19 N11        -30.6780     4.6930     1.0920 nc         1 1S2      -0.507800
     20 N22        -25.0490     3.1510     0.1220 nv         1 1S2      -1.074900
     21 Cl1        -26.1610     7.7030     1.6820 cl         1 1S2      -0.169000
     22 H1         -28.7480     6.4100     1.4310 ha         1 1S2       0.163000
     23 H3         -28.8420    -3.0200     1.0950 ha         1 1S2       0.109500
     24 H4         -28.0840    -2.3440     3.3710 ha         1 1S2       0.110000
     25 H5         -27.9440     0.0720     3.9680 ha         1 1S2       0.109500
     26 H6         -28.5570     1.8050     2.3080 ha         1 1S2       0.114500
     27 H10        -33.4360     1.6750     0.8730 hc         1 1S2       0.051700
     28 H11        -33.0020     1.6980    -0.8470 hc         1 1S2       0.051700
     29 H12        -32.1760     0.5940     0.2690 hc         1 1S2       0.051700
     30 H13        -30.0590     0.9650    -1.0720 hc         1 1S2       0.062700
     31 H14        -28.5480     1.7540    -0.8540 hc         1 1S2       0.062700
     32 H15        -25.2810     2.1620     0.0670 hn         1 1S2       0.507500
     33 H16        -24.0900     3.3770     0.3790 hn         1 1S2       0.507500
     34 C18        -33.1230     4.4910     1.2890 c3         1 1S2       0.066900
     35 H2         -29.4580    -1.2940    -0.5790 ha         1 1S2       0.114500
     36 H7         -33.0320     5.5630     1.5010 h1         1 1S2       0.059367
     37 H8         -33.8180     4.3470     0.4540 h1         1 1S2       0.059367
     38 H9         -33.5090     3.9780     2.1770 h1         1 1S2       0.059367
@<TRIPOS>BOND
     1     1    16 ar  
     2     1    17 ar  
     3     1    20 1   
     4     2     3 ar  
     5     2     7 1   
     6     2    17 ar  
     7     3     4 ar  
     8     3    22 1   
     9     4    16 ar  
    10     4    21 1   
    11     5     6 2   
    12     5    14 1   
    13     5    18 1   
    14     6     7 1   
    15     6    15 1   
    16     7    19 2   
    17     8     9 ar  
    18     8    13 ar  
    19     8    35 1   
    20     9    10 ar  
    21     9    23 1   
    22    10    11 ar  
    23    10    24 1   
    24    11    12 ar  
    25    11    25 1   
    26    12    13 ar  
    27    12    26 1   
    28    13    15 1   
    29    14    27 1   
    30    14    28 1   
    31    14    29 1   
    32    15    30 1   
    33    15    31 1   
    34    18    19 1   
    35    18    34 1   
    36    20    32 1   
    37    20    33 1   
    38    34    36 1   
    39    34    37 1   
    40    34    38 1   
@<TRIPOS>SUBSTRUCTURE
     1 1S2         1 TEMP              0 ****  ****    0 ROOT
