@<TRIPOS>MOLECULE
1S3
   26    27     1     0     0
SMALL
abcg2


@<TRIPOS>ATOM
      1 C1          72.6030    44.5760    66.5190 c5         1 1S3       0.401300
      2 O1          72.7430    44.5540    67.9550 os         1 1S3      -0.596400
      3 P           73.7780    45.6800    68.4480 p5         1 1S3       1.333200
      4 O2P         72.8960    46.5530    69.4440 oh         1 1S3      -0.750400
      5 O3P         75.0840    45.2490    68.9690 o          1 1S3      -0.539000
      6 O5          71.4070    44.0600    66.1350 os         1 1S3      -0.405000
      7 C5          70.2520    44.8740    66.3350 c6         1 1S3       0.130300
      8 C6          69.0520    44.0650    65.8980 c3         1 1S3       0.164600
      9 O6          69.0920    43.8790    64.5050 oh         1 1S3      -0.719000
     10 C4          70.4240    46.1980    65.5790 c6         1 1S3       0.155300
     11 O4          69.2860    47.0050    65.7180 oh         1 1S3      -0.701000
     12 C3          71.6050    46.9360    66.1920 c6         1 1S3       0.159300
     13 O3          71.8270    48.1310    65.4940 oh         1 1S3      -0.635000
     14 C2          72.8470    46.0430    66.1350 c5         1 1S3       0.081300
     15 O2          73.8410    46.4990    67.0590 os         1 1S3      -0.561400
     16 H1          73.3750    43.9290    66.0930 h2         1 1S3       0.109700
     17 H2A         73.3520    46.8020    70.2600 ho         1 1S3       0.494000
     18 H5          70.1200    45.0860    67.4050 h1         1 1S3       0.070700
     19 H61         68.1510    44.5990    66.2210 h1         1 1S3       0.039200
     20 H62         69.0620    43.1130    66.4440 h1         1 1S3       0.039200
     21 HO6         68.2910    43.4200    64.2370 ho         1 1S3       0.509000
     22 H4          70.6430    45.9850    64.5240 h1         1 1S3       0.073700
     23 HO4         68.6440    46.7500    65.0490 ho         1 1S3       0.515000
     24 H3          71.3510    47.1380    67.2430 h1         1 1S3       0.057700
     25 HO3         72.3950    48.6980    66.0260 ho         1 1S3       0.460000
     26 H2          73.2750    46.0930    65.1320 h1         1 1S3       0.112700
@<TRIPOS>BOND
     1     1     2 1   
     2     1     6 1   
     3     1    14 1   
     4     1    16 1   
     5     2     3 1   
     6     3     4 1   
     7     3     5 2   
     8     3    15 1   
     9     4    17 1   
    10     6     7 1   
    11     7     8 1   
    12     7    10 1   
    13     7    18 1   
    14     8     9 1   
    15     8    19 1   
    16     8    20 1   
    17     9    21 1   
    18    10    11 1   
    19    10    12 1   
    20    10    22 1   
    21    11    23 1   
    22    12    13 1   
    23    12    14 1   
    24    12    24 1   
    25    13    25 1   
    26    14    15 1   
    27    14    26 1   
@<TRIPOS>SUBSTRUCTURE
     1 1S3         1 TEMP              0 ****  ****    0 ROOT
