@<TRIPOS>MOLECULE
1S3
   26    27     1     0     0
SMALL
No Charge or Current Charge


@<TRIPOS>ATOM
      1 C1          72.1610    44.7740    67.0710 c5         1 1S3       0.401300
      2 O1          72.9490    44.6890    68.2680 os         1 1S3      -0.596400
      3 P           74.2370    45.5870    68.0070 p5         1 1S3       1.333200
      4 O2P         74.4760    46.1560    69.4630 oh         1 1S3      -0.750400
      5 O3P         75.3810    44.9690    67.2890 o          1 1S3      -0.539000
      6 O5          70.7770    44.7310    67.5070 os         1 1S3      -0.405000
      7 C5          69.7160    45.1050    66.5760 c6         1 1S3       0.130300
      8 C6          69.2580    43.8320    65.7910 c3         1 1S3       0.164600
      9 O6          70.3270    43.1880    65.0690 oh         1 1S3      -0.719000
     10 C4          70.1370    46.2590    65.6070 c6         1 1S3       0.155300
     11 O4          69.0110    47.0830    65.2510 oh         1 1S3      -0.701000
     12 C3          71.2520    47.1080    66.2680 c6         1 1S3       0.159300
     13 O3          71.5710    48.2510    65.4540 oh         1 1S3      -0.635000
     14 C2          72.4890    46.1910    66.4300 c5         1 1S3       0.081300
     15 O2          73.4660    46.8030    67.3080 os         1 1S3      -0.561400
     16 H1          72.3900    43.9530    66.3760 h2         1 1S3       0.109700
     17 H2A         73.5210    46.2620    69.6230 ho         1 1S3       0.494000
     18 H5          68.8610    45.4450    67.1780 h1         1 1S3       0.070700
     19 H61         68.4540    44.1250    65.1010 h1         1 1S3       0.039200
     20 H62         68.8210    43.1320    66.5160 h1         1 1S3       0.039200
     21 HO6         69.9440    42.3850    64.6420 ho         1 1S3       0.509000
     22 H4          70.5600    45.8130    64.6930 h1         1 1S3       0.073700
     23 HO4         69.4110    47.9430    64.9720 ho         1 1S3       0.515000
     24 H3          70.9110    47.4320    67.2630 h1         1 1S3       0.057700
     25 HO3         72.3730    48.6550    65.8590 ho         1 1S3       0.460000
     26 H2          72.9410    46.0450    65.4380 h1         1 1S3       0.112700
@<TRIPOS>BOND
     1     1     2 1   
     2     1     6 1   
     3     1    14 1   
     4     1    16 1   
     5     2     3 1   
     6     3     4 1   
     7     3     5 2   
     8     3    15 1   
     9     4    17 1   
    10     6     7 1   
    11     7     8 1   
    12     7    10 1   
    13     7    18 1   
    14     8     9 1   
    15     8    19 1   
    16     8    20 1   
    17     9    21 1   
    18    10    11 1   
    19    10    12 1   
    20    10    22 1   
    21    11    23 1   
    22    12    13 1   
    23    12    14 1   
    24    12    24 1   
    25    13    25 1   
    26    14    15 1   
    27    14    26 1   
@<TRIPOS>SUBSTRUCTURE
     1 1S3         1 TEMP              0 ****  ****    0 ROOT
