@<TRIPOS>MOLECULE
1S5
   49    50     1     0     0
SMALL
bcc


@<TRIPOS>ATOM
      1 OAA          1.5010    -0.5410     2.0210 o          1 1S5      -0.563100
      2 CAB          0.7220    -0.8520     1.1130 c          1 1S5       0.563500
      3 CAC          1.1690    -1.1980    -0.2200 cc         1 1S5      -0.072100
      4 OAD          2.5020    -1.2470    -0.4900 os         1 1S5      -0.232200
      5 CAE          3.2250    -0.0820    -0.3960 ca         1 1S5       0.095100
      6 CAF          4.5730    -0.2070    -0.0630 ca         1 1S5      -0.044300
      7 CAG          5.1620    -1.5500     0.2490 c3         1 1S5      -0.038800
      8 CAH         -0.7060    -0.9230     1.2510 cc         1 1S5      -0.316200
      9 CAI          0.2950    -1.5440    -1.1940 cd         1 1S5       0.054000
     10 CAJ          2.6810     1.1620    -0.6670 ca         1 1S5      -0.140000
     11 CAK          5.3510     0.9430    -0.0190 ca         1 1S5      -0.167000
     12 CAL         -1.5480    -1.2930     0.2430 cd         1 1S5       0.138800
     13 NAM         -1.0460    -1.6020    -0.9850 na         1 1S5      -0.486200
     14 CAN          3.4710     2.3010    -0.6060 ca         1 1S5      -0.168000
     15 CAO          4.8260     2.2110    -0.2840 ca         1 1S5       0.119600
     16 NAP          5.6430     3.3330    -0.2840 nv         1 1S5      -0.812200
     17 CAQ         -3.0310    -1.3270     0.4580 c3         1 1S5      -0.049200
     18 CAR         -1.9090    -2.0490    -2.0740 c3         1 1S5       0.202100
     19 CAS         -3.7150    -0.0120     0.0700 c3         1 1S5      -0.074400
     20 CAT         -5.2190    -0.0640     0.3050 c3         1 1S5      -0.076400
     21 CAU         -5.9240     1.2370    -0.0550 c3         1 1S5      -0.075400
     22 CAV         -7.4260     1.1920     0.1960 c3         1 1S5      -0.074400
     23 CAW         -8.1250     2.4930    -0.1740 c3         1 1S5      -0.089100
     24 HAG          5.0840    -2.2350    -0.5970 hc         1 1S5       0.044367
     25 HAGA         6.2170    -1.4610     0.5060 hc         1 1S5       0.044367
     26 HAGB         4.6500    -2.0220     1.0890 hc         1 1S5       0.044367
     27 HAH         -1.1390    -0.6900     2.2150 ha         1 1S5       0.156000
     28 HAI          0.6400    -1.8080    -2.1850 h4         1 1S5       0.161000
     29 HAJ          1.6340     1.2620    -0.9280 ha         1 1S5       0.133000
     30 HAK          6.4020     0.8470     0.2370 ha         1 1S5       0.129000
     31 HAN          3.0280     3.2660    -0.8180 ha         1 1S5       0.127000
     32 HNAP         6.4520     3.2630     0.3140 hn         1 1S5       0.381300
     33 HNAA         5.1600     4.2030    -0.1240 hn         1 1S5       0.381300
     34 HAQ         -3.4900    -2.1590    -0.0810 hc         1 1S5       0.059200
     35 HAQA        -3.2090    -1.5180     1.5180 hc         1 1S5       0.059200
     36 HAR         -1.3160    -2.1300    -2.9790 h1         1 1S5       0.054367
     37 HARA        -2.3410    -3.0220    -1.8530 h1         1 1S5       0.054367
     38 HARB        -2.7060    -1.3330    -2.2560 h1         1 1S5       0.054367
     39 HAS         -3.2760     0.8020     0.6530 hc         1 1S5       0.046700
     40 HASA        -3.5200     0.2260    -0.9800 hc         1 1S5       0.046700
     41 HAT         -5.6490    -0.8860    -0.2780 hc         1 1S5       0.038700
     42 HATA        -5.4100    -0.3060     1.3560 hc         1 1S5       0.038700
     43 HAU         -5.4840     2.0600     0.5190 hc         1 1S5       0.039200
     44 HAUA        -5.7400     1.4720    -1.1090 hc         1 1S5       0.039200
     45 HAV         -7.8630     0.3650    -0.3730 hc         1 1S5       0.037200
     46 HAVA        -7.6090     0.9630     1.2500 hc         1 1S5       0.037200
     47 HAW         -7.7200     3.3320     0.3940 hc         1 1S5       0.032700
     48 HAWA        -7.9960     2.7210    -1.2340 hc         1 1S5       0.032700
     49 HAWB        -9.1960     2.4450     0.0250 hc         1 1S5       0.032700
@<TRIPOS>BOND
     1     1     2 2   
     2     2     3 1   
     3     2     8 1   
     4     3     4 1   
     5     3     9 2   
     6     4     5 1   
     7     5     6 ar  
     8     5    10 ar  
     9     6     7 1   
    10     6    11 ar  
    11     7    24 1   
    12     7    25 1   
    13     7    26 1   
    14     8    12 2   
    15     8    27 1   
    16     9    13 1   
    17     9    28 1   
    18    10    14 ar  
    19    10    29 1   
    20    11    15 ar  
    21    11    30 1   
    22    12    13 1   
    23    12    17 1   
    24    13    18 1   
    25    14    15 ar  
    26    14    31 1   
    27    15    16 1   
    28    16    32 1   
    29    16    33 1   
    30    17    19 1   
    31    17    34 1   
    32    17    35 1   
    33    18    36 1   
    34    18    37 1   
    35    18    38 1   
    36    19    20 1   
    37    19    39 1   
    38    19    40 1   
    39    20    21 1   
    40    20    41 1   
    41    20    42 1   
    42    21    22 1   
    43    21    43 1   
    44    21    44 1   
    45    22    23 1   
    46    22    45 1   
    47    22    46 1   
    48    23    47 1   
    49    23    48 1   
    50    23    49 1   
@<TRIPOS>SUBSTRUCTURE
     1 1S5         1 TEMP              0 ****  ****    0 ROOT
