@<TRIPOS>MOLECULE
1S5
   49    50     1     0     0
SMALL
No Charge or Current Charge


@<TRIPOS>ATOM
      1 OAA          1.5150    -0.9010     2.1380 o          1 1S5      -0.563100
      2 CAB          0.7900    -1.1600     1.1850 c          1 1S5       0.563500
      3 CAC          1.2580    -1.4970    -0.1560 cc         1 1S5      -0.072100
      4 OAD          2.5910    -1.5030    -0.5100 os         1 1S5      -0.232200
      5 CAE          3.1570    -0.2380    -0.3920 ca         1 1S5       0.095100
      6 CAF          4.5380    -0.1510    -0.1010 ca         1 1S5      -0.044300
      7 CAG          5.3650    -1.4140     0.1120 c3         1 1S5      -0.038800
      8 CAH         -0.6470    -1.1390     1.2810 cc         1 1S5      -0.366200
      9 CAI          0.4360    -1.8320    -1.2050 cd         1 1S5       0.004000
     10 CAJ          2.4180     0.9530    -0.6090 ca         1 1S5      -0.122000
     11 CAK          5.1540     1.1140     0.0030 ca         1 1S5      -0.149000
     12 CAL         -1.5190    -1.4610     0.2670 cd         1 1S5       0.138800
     13 NAM         -0.9700    -1.8460    -0.9930 na         1 1S5      -0.486200
     14 CAN          3.0470     2.2060    -0.5020 ca         1 1S5      -0.150000
     15 CAO          4.4110     2.2880    -0.1920 ca         1 1S5       0.258000
     16 NAP          5.0190     3.5110    -0.0900 nv         1 1S5      -1.061000
     17 CAQ         -3.0190    -1.4130     0.4870 c3         1 1S5      -0.049200
     18 CAR         -1.8490    -2.2500    -2.1220 c3         1 1S5       0.202100
     19 CAS         -3.6310    -0.0440     0.1110 c3         1 1S5      -0.074400
     20 CAT         -5.1600     0.0150     0.3200 c3         1 1S5      -0.076400
     21 CAU         -5.7680     1.3840    -0.0530 c3         1 1S5      -0.075400
     22 CAV         -7.2970     1.4440     0.1550 c3         1 1S5      -0.074400
     23 CAW         -7.9040     2.8100    -0.2180 c3         1 1S5      -0.089100
     24 HAG          5.3620    -2.0410    -0.7870 hc         1 1S5       0.044367
     25 HAGA         6.4110    -1.1830     0.3500 hc         1 1S5       0.044367
     26 HAGB         4.9630    -2.0100     0.9400 hc         1 1S5       0.044367
     27 HAH         -1.0190    -0.8550     2.2570 ha         1 1S5       0.206000
     28 HAI          0.8120    -2.0890    -2.1930 h4         1 1S5       0.211000
     29 HAJ          1.3640     0.9230    -0.8740 ha         1 1S5       0.115000
     30 HAK          6.2130     1.1820     0.2340 ha         1 1S5       0.111000
     31 HAN          2.4700     3.1120    -0.6670 ha         1 1S5       0.109000
     32 HNAP         5.9790     3.5800     0.2430 hn         1 1S5       0.436500
     33 HNAA         4.4640     4.3640    -0.1210 hn         1 1S5       0.436500
     34 HAQ         -3.5300    -2.2090    -0.0660 hc         1 1S5       0.059200
     35 HAQA        -3.2380    -1.6130     1.5430 hc         1 1S5       0.059200
     36 HAR         -1.2560    -2.4410    -3.0260 h1         1 1S5       0.054367
     37 HARA        -2.3900    -3.1690    -1.8630 h1         1 1S5       0.054367
     38 HARB        -2.5700    -1.4550    -2.3450 h1         1 1S5       0.054367
     39 HAS         -3.1530     0.7370     0.7160 hc         1 1S5       0.046700
     40 HASA        -3.4020     0.1840    -0.9370 hc         1 1S5       0.046700
     41 HAT         -5.6370    -0.7670    -0.2840 hc         1 1S5       0.038700
     42 HATA        -5.3890    -0.2070     1.3700 hc         1 1S5       0.038700
     43 HAU         -5.2920     2.1670     0.5510 hc         1 1S5       0.039200
     44 HAUA        -5.5390     1.6060    -1.1030 hc         1 1S5       0.039200
     45 HAV         -7.7770     0.6640    -0.4490 hc         1 1S5       0.037200
     46 HAVA        -7.5300     1.2250     1.2040 hc         1 1S5       0.037200
     47 HAW         -7.4690     3.6090     0.3950 hc         1 1S5       0.032700
     48 HAWA        -7.7180     3.0430    -1.2730 hc         1 1S5       0.032700
     49 HAWB        -8.9880     2.8040    -0.0540 hc         1 1S5       0.032700
@<TRIPOS>BOND
     1     1     2 2   
     2     2     3 1   
     3     2     8 1   
     4     3     4 1   
     5     3     9 2   
     6     4     5 1   
     7     5     6 ar  
     8     5    10 ar  
     9     6     7 1   
    10     6    11 ar  
    11     7    24 1   
    12     7    25 1   
    13     7    26 1   
    14     8    12 2   
    15     8    27 1   
    16     9    13 1   
    17     9    28 1   
    18    10    14 ar  
    19    10    29 1   
    20    11    15 ar  
    21    11    30 1   
    22    12    13 1   
    23    12    17 1   
    24    13    18 1   
    25    14    15 ar  
    26    14    31 1   
    27    15    16 1   
    28    16    32 1   
    29    16    33 1   
    30    17    19 1   
    31    17    34 1   
    32    17    35 1   
    33    18    36 1   
    34    18    37 1   
    35    18    38 1   
    36    19    20 1   
    37    19    39 1   
    38    19    40 1   
    39    20    21 1   
    40    20    41 1   
    41    20    42 1   
    42    21    22 1   
    43    21    43 1   
    44    21    44 1   
    45    22    23 1   
    46    22    45 1   
    47    22    46 1   
    48    23    47 1   
    49    23    48 1   
    50    23    49 1   
@<TRIPOS>SUBSTRUCTURE
     1 1S5         1 TEMP              0 ****  ****    0 ROOT
