@<TRIPOS>MOLECULE
1S6
   48    50     1     0     0
SMALL
bcc


@<TRIPOS>ATOM
      1 C            1.1340    -1.8400    -1.2770 c          1 1S6       0.577900
      2 N           -0.3440    -0.3620    -0.0340 ns         1 1S6      -0.547900
      3 CA           0.8750    -0.4260    -0.7860 c3         1 1S6      -0.016300
      4 CB           2.0450     0.1000     0.0410 c5         1 1S6       0.319600
      5 CAI         -4.6960     4.0530    -1.4010 ca         1 1S6      -0.119000
      6 CAJ         -3.4000     3.7390    -1.0150 ca         1 1S6      -0.136500
      7 CAK         -5.7190     3.1370    -1.1930 ca         1 1S6      -0.136500
      8 CAL         -3.1250     2.5130    -0.4300 ca         1 1S6      -0.088500
      9 CAM         -5.4480     1.9100    -0.6070 ca         1 1S6      -0.088500
     10 NAN         -4.7110    -0.2300     1.2520 nc         1 1S6      -0.377300
     11 NAP          3.1840     0.4410    -0.7600 n7         1 1S6      -0.752200
     12 OAQ         -4.1520    -1.3950     1.6790 os         1 1S6      -0.119100
     13 SAR          2.6050    -1.1800     1.2800 ss         1 1S6      -0.533200
     14 CAT          4.6230     1.6040     0.9120 c          1 1S6       0.946600
     15 CAV         -2.9520    -1.5630     1.1270 cc         1 1S6       0.336000
     16 CAW         -4.1460     1.5890    -0.2230 ca         1 1S6      -0.136500
     17 CAX         -3.8610     0.3030     0.4210 cd         1 1S6       0.438800
     18 CAY         -2.6950    -0.5060     0.3120 cd         1 1S6      -0.413200
     19 CBB          4.4040     0.3580     0.0260 c5         1 1S6       0.025500
     20 CBC          4.3790    -0.9760     0.8360 c5         1 1S6       0.088100
     21 OXT          0.3180    -2.7220    -1.2340 o          1 1S6      -0.529100
     22 H1           2.1240    -2.0030    -1.7350 h4         1 1S6      -0.009800
     23 H2          -0.2960    -0.4480     0.9710 hn         1 1S6       0.331500
     24 H3           0.7870     0.2150    -1.6720 h1         1 1S6       0.105700
     25 H4           1.7200     0.9690     0.6080 h2         1 1S6       0.140700
     26 H5          -2.6500    -3.3250     2.2850 hc         1 1S6       0.071700
     27 H6          -2.2430    -3.4860     0.5750 hc         1 1S6       0.071700
     28 H7          -1.1680    -2.6100     1.6490 hc         1 1S6       0.071700
     29 H15         -4.9100     5.0080    -1.8620 ha         1 1S6       0.125000
     30 H16         -2.6000     4.4520    -1.1670 ha         1 1S6       0.131000
     31 H17         -6.7320     3.3760    -1.4900 ha         1 1S6       0.131000
     32 H18         -2.1140     2.2930    -0.1120 ha         1 1S6       0.143500
     33 H19         -6.2470     1.1960    -0.4570 ha         1 1S6       0.143500
     34 H20          3.2690    -0.1790    -1.5560 hn         1 1S6       0.324800
     35 H22          5.2410     0.3050    -0.6750 h1         1 1S6       0.061700
     36 CAB          4.8170    -2.1340    -0.0580 c3         1 1S6      -0.072100
     37 CAC          5.2240    -0.9580     2.1030 c3         1 1S6      -0.072100
     38 OAE          3.6170     2.1560     1.3960 o          1 1S6      -0.818300
     39 OAH          5.8110     1.9470     1.0690 o          1 1S6      -0.818300
     40 CAU         -1.5550    -0.3460    -0.6200 c          1 1S6       0.718700
     41 CAA         -2.2140    -2.8120     1.4310 c3         1 1S6      -0.145400
     42 H8           4.2470    -2.1710    -0.9870 hc         1 1S6       0.035867
     43 H9           5.8730    -2.0300    -0.3180 hc         1 1S6       0.035867
     44 H10          4.6890    -3.0930     0.4460 hc         1 1S6       0.035867
     45 H11          5.1900    -1.9270     2.6020 hc         1 1S6       0.035867
     46 H12          6.2660    -0.7480     1.8550 hc         1 1S6       0.035867
     47 H13          4.8830    -0.2060     2.8110 hc         1 1S6       0.035867
     48 OAF         -1.7250    -0.2100    -1.8190 o          1 1S6      -0.593100
@<TRIPOS>BOND
     1     1     3 1   
     2     1    21 2   
     3     1    22 1   
     4     2     3 1   
     5     2    23 1   
     6     2    40 1   
     7     3     4 1   
     8     3    24 1   
     9     4    11 1   
    10     4    13 1   
    11     4    25 1   
    12     5     6 ar  
    13     5     7 ar  
    14     5    29 1   
    15     6     8 ar  
    16     6    30 1   
    17     7     9 ar  
    18     7    31 1   
    19     8    16 ar  
    20     8    32 1   
    21     9    16 ar  
    22     9    33 1   
    23    10    12 1   
    24    10    17 2   
    25    11    19 1   
    26    11    34 1   
    27    12    15 1   
    28    13    20 1   
    29    14    19 1   
    30    14    38 1   
    31    14    39 1   
    32    15    18 2   
    33    15    41 1   
    34    16    17 1   
    35    17    18 1   
    36    18    40 1   
    37    19    20 1   
    38    19    35 1   
    39    20    36 1   
    40    20    37 1   
    41    26    41 1   
    42    27    41 1   
    43    28    41 1   
    44    36    42 1   
    45    36    43 1   
    46    36    44 1   
    47    37    45 1   
    48    37    46 1   
    49    37    47 1   
    50    40    48 2   
@<TRIPOS>SUBSTRUCTURE
     1 1S6         1 TEMP              0 ****  ****    0 ROOT
