@<TRIPOS>MOLECULE
1S6
   48    50     1     0     0
SMALL
No Charge or Current Charge


@<TRIPOS>ATOM
      1 C            1.3350    -3.0340    -1.7670 c          1 1S6       0.577900
      2 N           -0.4940    -1.6270    -0.8460 ns         1 1S6      -0.480900
      3 CA           0.8250    -1.5960    -1.5400 c3         1 1S6      -0.016300
      4 CB           1.8850    -0.7040    -0.8390 c5         1 1S6       0.367500
      5 CAI         -3.5280     4.4180     0.2130 ca         1 1S6      -0.101000
      6 CAJ         -2.3980     3.7690     0.7380 ca         1 1S6      -0.118500
      7 CAK         -4.6430     3.6650    -0.1870 ca         1 1S6      -0.118500
      8 CAL         -2.3790     2.3680     0.8530 ca         1 1S6      -0.070500
      9 CAM         -4.6260     2.2640    -0.0720 ca         1 1S6      -0.070500
     10 NAN         -4.5110    -0.4340     1.2160 nc         1 1S6      -0.377300
     11 NAP          3.2170    -0.7370    -1.4580 n7         1 1S6      -0.807400
     12 OAQ         -4.1920    -1.8300     1.2310 os         1 1S6      -0.074700
     13 SAR          2.3550    -1.3610     0.8110 ss         1 1S6      -0.629000
     14 CAT          3.9970     1.7430    -0.8870 c          1 1S6       0.736000
     15 CAV         -2.9910    -2.0170     0.5940 cc         1 1S6       0.226300
     16 CAW         -3.4840     1.6000     0.4260 ca         1 1S6      -0.136500
     17 CAX         -3.4920     0.1360     0.5970 cd         1 1S6       0.373500
     18 CAY         -2.5240    -0.8020     0.1640 cd         1 1S6      -0.282600
     19 CBB          4.0890     0.1790    -0.6170 c5         1 1S6       0.025500
     20 CBC          3.7800    -0.1680     0.8970 c5         1 1S6       0.136000
     21 OXT          0.7390    -4.0390    -1.3820 o          1 1S6      -0.529100
     22 H1           2.2890    -3.1250    -2.3320 h4         1 1S6      -0.009800
     23 H2          -0.7940    -2.5070    -0.4480 hn         1 1S6       0.331500
     24 H3           0.6710    -1.1750    -2.5410 h1         1 1S6       0.105700
     25 H4           1.4950     0.3220    -0.7480 h2         1 1S6       0.140700
     26 H5          -3.1990    -4.1340     0.9280 hc         1 1S6       0.071700
     27 H6          -2.3730    -3.7230    -0.5780 hc         1 1S6       0.071700
     28 H7          -1.5310    -3.5590     0.9890 hc         1 1S6       0.071700
     29 H15         -3.5420     5.5020     0.1260 ha         1 1S6       0.107000
     30 H16         -1.5380     4.3510     1.0610 ha         1 1S6       0.113000
     31 H17         -5.5240     4.1660    -0.5830 ha         1 1S6       0.113000
     32 H18         -1.5050     1.8790     1.2780 ha         1 1S6       0.125500
     33 H19         -5.5000     1.6910    -0.3780 ha         1 1S6       0.125500
     34 H20          3.5700    -1.6890    -1.3390 hn         1 1S6       0.380000
     35 H22          5.1370    -0.0670    -0.8360 h1         1 1S6       0.061700
     36 CAB          4.9660    -0.8980     1.5720 c3         1 1S6      -0.072100
     37 CAC          3.3440     1.0150     1.8050 c3         1 1S6      -0.072100
     38 OAE          2.9450     2.2430    -1.2670 o          1 1S6      -0.713000
     39 OAH          5.0250     2.4040    -0.8170 o          1 1S6      -0.713000
     40 CAU         -1.2960    -0.5340    -0.6180 c          1 1S6       0.651700
     41 CAA         -2.4900    -3.4320     0.4730 c3         1 1S6      -0.145400
     42 H8           5.2620    -1.7860     1.0010 hc         1 1S6       0.035867
     43 H9           5.8430    -0.2430     1.6440 hc         1 1S6       0.035867
     44 H10          4.7100    -1.2270     2.5860 hc         1 1S6       0.035867
     45 H11          3.0970     0.6670     2.8150 hc         1 1S6       0.035867
     46 H12          4.1410     1.7610     1.9030 hc         1 1S6       0.035867
     47 H13          2.4530     1.5190     1.4130 hc         1 1S6       0.035867
     48 OAF         -0.9930     0.5640    -1.0530 o          1 1S6      -0.593100
@<TRIPOS>BOND
     1     1     3 1   
     2     1    21 2   
     3     1    22 1   
     4     2     3 1   
     5     2    23 1   
     6     2    40 1   
     7     3     4 1   
     8     3    24 1   
     9     4    11 1   
    10     4    13 1   
    11     4    25 1   
    12     5     6 ar  
    13     5     7 ar  
    14     5    29 1   
    15     6     8 ar  
    16     6    30 1   
    17     7     9 ar  
    18     7    31 1   
    19     8    16 ar  
    20     8    32 1   
    21     9    16 ar  
    22     9    33 1   
    23    10    12 1   
    24    10    17 2   
    25    11    19 1   
    26    11    34 1   
    27    12    15 1   
    28    13    20 1   
    29    14    19 1   
    30    14    38 1   
    31    14    39 1   
    32    15    18 2   
    33    15    41 1   
    34    16    17 1   
    35    17    18 1   
    36    18    40 1   
    37    19    20 1   
    38    19    35 1   
    39    20    36 1   
    40    20    37 1   
    41    26    41 1   
    42    27    41 1   
    43    28    41 1   
    44    36    42 1   
    45    36    43 1   
    46    36    44 1   
    47    37    45 1   
    48    37    46 1   
    49    37    47 1   
    50    40    48 2   
@<TRIPOS>SUBSTRUCTURE
     1 1S6         1 TEMP              0 ****  ****    0 ROOT
