@<TRIPOS>MOLECULE
1S7
   39    40     1     0     0
SMALL
No Charge or Current Charge


@<TRIPOS>ATOM
      1 C            1.1500    -2.2070    -1.9630 c3         1 1S7       0.153900
      2 N           -0.5130    -0.3670    -0.3950 ns         1 1S7      -0.506900
      3 O            1.5550    -1.6110    -0.7140 os         1 1S7      -0.419000
      4 S           -5.1230    -0.0900    -0.4410 ss         1 1S7       0.268000
      5 C1           0.5040    -1.2460     0.2310 c3         1 1S7       0.250400
      6 O1          -2.0810    -1.8940    -1.0370 o          1 1S7      -0.632100
      7 S1           2.5640    -1.3510     2.2200 ss         1 1S7      -0.469000
      8 N2           1.5580     0.9290     0.9650 n2         1 1S7      -0.636900
      9 C3          -2.5320     0.4300    -1.5340 c3         1 1S7      -0.089100
     10 C4          -3.6450     0.8620    -0.6090 cc         1 1S7      -0.200300
     11 C5          -3.6820     1.9690     0.2020 cd         1 1S7      -0.141000
     12 C6          -4.8780     2.0780     0.9610 cd         1 1S7      -0.137000
     13 C7          -5.7620     1.0540     0.7360 cc         1 1S7      -0.275000
     14 C8           1.1800    -0.4270     1.4080 c6         1 1S7       0.286500
     15 C9           3.8690    -0.0560     2.0790 c6         1 1S7       0.100800
     16 C10          3.8930     0.4800     0.6440 ce         1 1S7      -0.217800
     17 C11          5.0370     0.3580    -0.0780 c2         1 1S7      -0.254000
     18 C13          2.5920     1.0690     0.1690 ce         1 1S7       0.460600
     19 C14         -0.1510    -2.5070     0.9010 c          1 1S7       0.577900
     20 C15          2.3890     1.8470    -1.1690 c          1 1S7       0.640700
     21 H            0.5390    -3.1040    -1.8030 h1         1 1S7       0.031033
     22 HA           0.5740    -1.4970    -2.5690 h1         1 1S7       0.031033
     23 HB           2.0330    -2.5000    -2.5430 h1         1 1S7       0.031033
     24 HN          -0.2920     0.6240    -0.4100 hn         1 1S7       0.365500
     25 H3          -1.8760     1.2920    -1.7050 hc         1 1S7       0.076700
     26 H3A         -2.9690     0.1150    -2.4880 hc         1 1S7       0.076700
     27 H5          -2.8750     2.6930     0.2610 ha         1 1S7       0.133000
     28 H6          -5.0720     2.8930     1.6520 ha         1 1S7       0.124000
     29 H7          -6.7380     0.8830     1.1710 h4         1 1S7       0.140000
     30 H8           0.4200    -0.3030     2.1950 h2         1 1S7       0.066700
     31 H9           3.6430     0.7540     2.7890 h1         1 1S7       0.061200
     32 H9A          4.8340    -0.5020     2.3620 h1         1 1S7       0.061200
     33 H11          5.9330    -0.0980     0.3480 ha         1 1S7       0.168000
     34 H11A         5.1350     0.6840    -1.1110 ha         1 1S7       0.168000
     35 H14         -0.9510    -2.2690     1.6370 h4         1 1S7      -0.001800
     36 O4           0.1520    -3.6790     0.6790 o          1 1S7      -0.503100
     37 C2          -1.7010    -0.7340    -0.9800 c          1 1S7       0.601100
     38 O5           1.2560     2.2200    -1.4790 o          1 1S7      -0.694000
     39 O6           3.3460     2.1000    -1.8970 o          1 1S7      -0.694000
@<TRIPOS>BOND
     1     1     3 1   
     2     1    21 1   
     3     1    22 1   
     4     1    23 1   
     5     2     5 1   
     6     2    24 1   
     7     2    37 1   
     8     3     5 1   
     9     4    10 1   
    10     4    13 1   
    11     5    14 1   
    12     5    19 1   
    13     6    37 2   
    14     7    14 1   
    15     7    15 1   
    16     8    14 1   
    17     8    18 2   
    18     9    10 1   
    19     9    25 1   
    20     9    26 1   
    21     9    37 1   
    22    10    11 2   
    23    11    12 1   
    24    11    27 1   
    25    12    13 2   
    26    12    28 1   
    27    13    29 1   
    28    14    30 1   
    29    15    16 1   
    30    15    31 1   
    31    15    32 1   
    32    16    17 2   
    33    16    18 1   
    34    17    33 1   
    35    17    34 1   
    36    18    20 1   
    37    19    35 1   
    38    19    36 2   
    39    20    38 1   
    40    20    39 1   
@<TRIPOS>SUBSTRUCTURE
     1 1S7         1 TEMP              0 ****  ****    0 ROOT
