@<TRIPOS>MOLECULE
1S7
   39    40     1     0     0
SMALL
bcc


@<TRIPOS>ATOM
      1 C            0.3350    -2.7430    -1.9460 c3         1 1S7       0.130700
      2 N           -0.4650    -0.3290    -0.4460 ns         1 1S7      -0.573900
      3 O            1.1240    -1.9690    -1.0560 os         1 1S7      -0.372600
      4 S           -5.0410    -0.3850    -0.0550 ss         1 1S7      -0.021800
      5 C1           0.5030    -1.3060    -0.0140 c3         1 1S7       0.227200
      6 O1          -2.3310    -1.5100     0.0120 o          1 1S7      -0.632100
      7 S1           2.9060    -1.6940     1.2660 ss         1 1S7      -0.373200
      8 N2           2.0620     0.5390    -0.1190 n2         1 1S7      -0.636900
      9 C3          -2.5990     0.6090    -1.0710 c3         1 1S7      -0.089100
     10 C4          -3.9130     0.8680    -0.4130 cc         1 1S7      -0.055400
     11 C5          -4.4290     2.0880    -0.0910 cd         1 1S7      -0.159000
     12 C6          -5.7440     2.0160     0.4460 cd         1 1S7      -0.155000
     13 C7          -6.2050     0.7380     0.5130 cc         1 1S7      -0.148100
     14 C8           1.6180    -0.5260     0.7250 c6         1 1S7       0.238600
     15 C9           3.9820    -0.3750     1.8920 c6         1 1S7       0.052900
     16 C10          4.3470     0.5320     0.7590 ce         1 1S7      -0.217800
     17 C11          5.6060     0.9270     0.5640 c2         1 1S7      -0.154000
     18 C13          3.2520     0.9900    -0.1220 ce         1 1S7       0.460600
     19 C14         -0.1170    -2.2530     1.0230 c          1 1S7       0.577900
     20 C15          3.5360     2.1220    -1.1030 c          1 1S7       0.851300
     21 H            0.5340    -3.8040    -1.8020 h1         1 1S7       0.031033
     22 HA          -0.7370    -2.5830    -1.8310 h1         1 1S7       0.031033
     23 HB           0.6040    -2.4710    -2.9670 h1         1 1S7       0.031033
     24 HN          -0.0700     0.5270    -0.8150 hn         1 1S7       0.365500
     25 H3          -2.0260     1.5370    -1.0940 hc         1 1S7       0.076700
     26 H3A         -2.7490     0.3170    -2.1170 hc         1 1S7       0.076700
     27 H5          -3.8880     3.0130    -0.2410 ha         1 1S7       0.151000
     28 H6          -6.3140     2.8770     0.7650 ha         1 1S7       0.142000
     29 H7          -7.1550     0.3920     0.8910 h4         1 1S7       0.158000
     30 H8           1.1680    -0.0880     1.6250 h2         1 1S7       0.066700
     31 H9           3.4590     0.1650     2.6860 h1         1 1S7       0.061200
     32 H9A          4.8640    -0.8410     2.3280 h1         1 1S7       0.061200
     33 H11          6.4010     0.5960     1.2220 ha         1 1S7       0.118000
     34 H11A         5.8940     1.5780    -0.2500 ha         1 1S7       0.118000
     35 H14         -0.5490    -1.7420     1.8990 h4         1 1S7      -0.001800
     36 O4          -0.0120    -3.4470     0.9590 o          1 1S7      -0.503100
     37 C2          -1.7980    -0.5070    -0.4370 c          1 1S7       0.668100
     38 O5           3.2430     3.2600    -0.7060 o          1 1S7      -0.799300
     39 O6           4.0190     1.7740    -2.1920 o          1 1S7      -0.799300
@<TRIPOS>BOND
     1     1     3 1   
     2     1    21 1   
     3     1    22 1   
     4     1    23 1   
     5     2     5 1   
     6     2    24 1   
     7     2    37 1   
     8     3     5 1   
     9     4    10 1   
    10     4    13 1   
    11     5    14 1   
    12     5    19 1   
    13     6    37 2   
    14     7    14 1   
    15     7    15 1   
    16     8    14 1   
    17     8    18 2   
    18     9    10 1   
    19     9    25 1   
    20     9    26 1   
    21     9    37 1   
    22    10    11 2   
    23    11    12 1   
    24    11    27 1   
    25    12    13 2   
    26    12    28 1   
    27    13    29 1   
    28    14    30 1   
    29    15    16 1   
    30    15    31 1   
    31    15    32 1   
    32    16    17 2   
    33    16    18 1   
    34    17    33 1   
    35    17    34 1   
    36    18    20 1   
    37    19    35 1   
    38    19    36 2   
    39    20    38 1   
    40    20    39 1   
@<TRIPOS>SUBSTRUCTURE
     1 1S7         1 TEMP              0 ****  ****    0 ROOT
