@<TRIPOS>MOLECULE
1S8
   60    64     1     0     0
SMALL
bcc


@<TRIPOS>ATOM
      1 C1          -5.0050    -4.5600    -1.3960 c3         1 1S8       0.132700
      2 O2          -5.8920    -3.5260    -1.0090 os         1 1S8      -0.341900
      3 C3          -5.3770    -2.3870    -0.5160 ca         1 1S8       0.048100
      4 C4          -4.0460    -2.1070    -0.3590 ca         1 1S8      -0.151000
      5 C5          -3.6370    -0.8660     0.1760 ca         1 1S8      -0.307600
      6 C6          -4.6060     0.0830     0.5490 ca         1 1S8       0.465600
      7 C7          -5.9700    -0.2180     0.3760 ca         1 1S8      -0.215300
      8 C8          -6.3590    -1.4230    -0.1460 ca         1 1S8       0.158100
      9 O9          -7.6610    -1.6900    -0.3040 oh         1 1S8      -0.486100
     10 N10         -4.2720     1.2940     1.0720 nb         1 1S8      -0.732000
     11 C11         -3.0010     1.5350     1.2210 ca         1 1S8       0.712300
     12 N12         -1.9900     0.7130     0.8940 nb         1 1S8      -0.798000
     13 C13         -2.2740    -0.4580     0.3710 ca         1 1S8       0.741200
     14 N14         -1.2710    -1.2910     0.0080 nu         1 1S8      -0.734300
     15 C15          0.1140    -1.1070     0.0080 ca         1 1S8       0.142600
     16 C16          0.7810     0.0670     0.3540 ca         1 1S8      -0.138500
     17 C17          2.1670     0.1450     0.2950 ca         1 1S8      -0.141000
     18 C18          2.9290    -0.9460    -0.1130 ca         1 1S8       0.048600
     19 C19          2.2580    -2.1210    -0.4610 ca         1 1S8      -0.141000
     20 C20          0.8840    -2.2000    -0.4000 ca         1 1S8      -0.138500
     21 N21          4.3240    -0.9590    -0.2230 ns         1 1S8      -0.464100
     22 C22          5.2160    -0.0030     0.1310 c          1 1S8       0.687700
     23 O23          4.9140     1.0430     0.6820 o          1 1S8      -0.580100
     24 C24          6.6410    -0.3240    -0.1840 ca         1 1S8      -0.155600
     25 C25          7.0140    -1.1050    -1.2780 ca         1 1S8      -0.090000
     26 C26          8.3550    -1.3440    -1.5410 ca         1 1S8      -0.136500
     27 C27          9.3340    -0.8140    -0.7110 ca         1 1S8      -0.105000
     28 C28          8.9680    -0.0310     0.3770 ca         1 1S8      -0.136500
     29 C29          7.6300     0.2220     0.6320 ca         1 1S8      -0.090000
     30 C30         -2.5880     2.8640     1.7960 c3         1 1S8      -0.070400
     31 C31         -1.7950     3.6660     0.7980 ca         1 1S8      -0.077300
     32 C32         -2.4410     4.3200    -0.2490 ca         1 1S8      -0.117000
     33 C33         -1.7160     5.0310    -1.1950 ca         1 1S8      -0.130500
     34 C34         -0.3300     5.0970    -1.1070 ca         1 1S8      -0.127000
     35 C35          0.3220     4.4510    -0.0660 ca         1 1S8      -0.130500
     36 C36         -0.4080     3.7400     0.8780 ca         1 1S8      -0.117000
     37 H1          -5.6230    -5.3780    -1.7560 h1         1 1S8       0.044033
     38 H2          -4.3380    -4.2360    -2.1980 h1         1 1S8       0.044033
     39 H3          -4.4070    -4.9090    -0.5510 h1         1 1S8       0.044033
     40 H4          -3.3200    -2.8560    -0.6460 ha         1 1S8       0.127000
     41 H5          -6.7120     0.5170     0.6610 ha         1 1S8       0.171000
     42 H6          -7.7830    -2.5710    -0.6810 ho         1 1S8       0.447000
     43 H7          -1.5510    -2.1870    -0.3530 hn         1 1S8       0.437800
     44 H8           0.2260     0.9350     0.6680 ha         1 1S8       0.150500
     45 H9           2.6340     1.0740     0.5760 ha         1 1S8       0.146500
     46 H10          2.8180    -2.9900    -0.7870 ha         1 1S8       0.146500
     47 H11          0.4010    -3.1270    -0.6850 ha         1 1S8       0.150500
     48 H12          4.7060    -1.8280    -0.5630 hn         1 1S8       0.318500
     49 H13          6.2710    -1.5100    -1.9540 ha         1 1S8       0.141500
     50 H14          8.6340    -1.9400    -2.4000 ha         1 1S8       0.136500
     51 H15         10.3790    -1.0050    -0.9160 ha         1 1S8       0.134000
     52 H16          9.7270     0.3840     1.0270 ha         1 1S8       0.136500
     53 H17          7.3510     0.8360     1.4780 ha         1 1S8       0.141500
     54 H18         -3.4830     3.4050     2.1040 hc         1 1S8       0.071200
     55 H19         -1.9830     2.6890     2.6890 hc         1 1S8       0.071200
     56 H20         -3.5210     4.2720    -0.3250 ha         1 1S8       0.133500
     57 H21         -2.2330     5.5340    -2.0020 ha         1 1S8       0.130000
     58 H22          0.2360     5.6520    -1.8450 ha         1 1S8       0.128000
     59 H23          1.4010     4.5000     0.0130 ha         1 1S8       0.130000
     60 H24          0.1060     3.2440     1.6930 ha         1 1S8       0.133500
@<TRIPOS>BOND
     1     1     2 1   
     2     1    37 1   
     3     1    38 1   
     4     1    39 1   
     5     2     3 1   
     6     3     4 ar  
     7     3     8 ar  
     8     4     5 ar  
     9     4    40 1   
    10     5     6 ar  
    11     5    13 ar  
    12     6     7 ar  
    13     6    10 ar  
    14     7     8 ar  
    15     7    41 1   
    16     8     9 1   
    17     9    42 1   
    18    10    11 ar  
    19    11    12 ar  
    20    11    30 1   
    21    12    13 ar  
    22    13    14 1   
    23    14    15 1   
    24    14    43 1   
    25    15    16 ar  
    26    15    20 ar  
    27    16    17 ar  
    28    16    44 1   
    29    17    18 ar  
    30    17    45 1   
    31    18    19 ar  
    32    18    21 1   
    33    19    20 ar  
    34    19    46 1   
    35    20    47 1   
    36    21    22 1   
    37    21    48 1   
    38    22    23 2   
    39    22    24 1   
    40    24    25 ar  
    41    24    29 ar  
    42    25    26 ar  
    43    25    49 1   
    44    26    27 ar  
    45    26    50 1   
    46    27    28 ar  
    47    27    51 1   
    48    28    29 ar  
    49    28    52 1   
    50    29    53 1   
    51    30    31 1   
    52    30    54 1   
    53    30    55 1   
    54    31    32 ar  
    55    31    36 ar  
    56    32    33 ar  
    57    32    56 1   
    58    33    34 ar  
    59    33    57 1   
    60    34    35 ar  
    61    34    58 1   
    62    35    36 ar  
    63    35    59 1   
    64    36    60 1   
@<TRIPOS>SUBSTRUCTURE
     1 1S8         1 TEMP              0 ****  ****    0 ROOT
