@<TRIPOS>MOLECULE
1S8
   60    64     1     0     0
SMALL
No Charge or Current Charge


@<TRIPOS>ATOM
      1 C1          -4.9680    -4.5000    -1.8620 c3         1 1S8       0.155900
      2 O2          -5.8840    -3.4820    -1.4150 os         1 1S8      -0.365100
      3 C3          -5.4580    -2.3250    -0.7830 ca         1 1S8       0.048100
      4 C4          -4.0950    -2.0560    -0.5280 ca         1 1S8      -0.133000
      5 C5          -3.7190    -0.8540     0.1230 ca         1 1S8      -0.177000
      6 C6          -4.7100     0.0830     0.5120 ca         1 1S8       0.072000
      7 C7          -6.0620    -0.1990     0.2510 ca         1 1S8      -0.132000
      8 C8          -6.4340    -1.3890    -0.3870 ca         1 1S8       0.158100
      9 O9          -7.7520    -1.6440    -0.6320 oh         1 1S8      -0.525100
     10 N10         -4.3650     1.2340     1.1240 nb         1 1S8      -0.206000
     11 C11         -3.0540     1.4500     1.3540 ca         1 1S8       0.186300
     12 N12         -2.0470     0.6180     1.0320 nb         1 1S8      -0.272000
     13 C13         -2.3700    -0.5230     0.4050 ca         1 1S8       0.412900
     14 N14         -1.3120    -1.3790     0.0910 nu         1 1S8      -0.927900
     15 C15          0.0770    -1.2130     0.0080 ca         1 1S8       0.281000
     16 C16          0.6690     0.0320    -0.2770 ca         1 1S8      -0.120500
     17 C17          2.0670     0.1620    -0.3640 ca         1 1S8      -0.123000
     18 C18          2.9000    -0.9620    -0.1730 ca         1 1S8      -0.044000
     19 C19          2.3050    -2.2100     0.0870 ca         1 1S8      -0.123000
     20 C20          0.9060    -2.3340     0.1730 ca         1 1S8      -0.120500
     21 N21          4.3210    -0.9130    -0.2500 ns         1 1S8      -0.138000
     22 C22          5.2220     0.1420    -0.3600 c          1 1S8       0.620700
     23 O23          4.8780     1.3200    -0.3840 o          1 1S8      -0.580100
     24 C24          6.6890    -0.2460    -0.4420 ca         1 1S8      -0.155600
     25 C25          7.1160    -1.5990    -0.4160 ca         1 1S8      -0.072000
     26 C26          8.4830    -1.9190    -0.4950 ca         1 1S8      -0.118500
     27 C27          9.4440    -0.9020    -0.5990 ca         1 1S8      -0.087000
     28 C28          9.0370     0.4400    -0.6260 ca         1 1S8      -0.118500
     29 C29          7.6720     0.7660    -0.5480 ca         1 1S8      -0.072000
     30 C30         -2.6670     2.7570     2.0320 c3         1 1S8      -0.070400
     31 C31         -1.8130     3.6360     1.1240 ca         1 1S8      -0.077300
     32 C32         -2.4250     4.5150     0.2100 ca         1 1S8      -0.099000
     33 C33         -1.6390     5.3130    -0.6400 ca         1 1S8      -0.112500
     34 C34         -0.2370     5.2340    -0.5830 ca         1 1S8      -0.109000
     35 C35          0.3790     4.3560     0.3260 ca         1 1S8      -0.112500
     36 C36         -0.4070     3.5600     1.1770 ca         1 1S8      -0.099000
     37 H1          -5.5160    -5.3250    -2.3330 h1         1 1S8       0.044033
     38 H2          -4.2640    -4.0950    -2.6000 h1         1 1S8       0.044033
     39 H3          -4.3980    -4.9100    -1.0180 h1         1 1S8       0.044033
     40 H4          -3.3350    -2.7660    -0.8370 ha         1 1S8       0.109000
     41 H5          -6.8290     0.5120     0.5460 ha         1 1S8       0.153000
     42 H6          -7.7840    -2.5180    -1.0820 ho         1 1S8       0.486000
     43 H7          -1.6170    -2.3390    -0.0430 hn         1 1S8       0.493000
     44 H8           0.0500     0.9070    -0.4510 ha         1 1S8       0.132500
     45 H9           2.4770     1.1400    -0.5930 ha         1 1S8       0.128500
     46 H10          2.9260    -3.0930     0.2270 ha         1 1S8       0.128500
     47 H11          0.4680    -3.3070     0.3800 ha         1 1S8       0.132500
     48 H12          4.7580    -1.8240    -0.2190 hn         1 1S8       0.152000
     49 H13          6.4050    -2.4180    -0.3370 ha         1 1S8       0.123500
     50 H14          8.7980    -2.9600    -0.4740 ha         1 1S8       0.118500
     51 H15         10.5010    -1.1540    -0.6600 ha         1 1S8       0.116000
     52 H16          9.7800     1.2300    -0.7080 ha         1 1S8       0.118500
     53 H17          7.3820     1.8150    -0.5710 ha         1 1S8       0.123500
     54 H18         -3.5640     3.3070     2.3430 hc         1 1S8       0.071200
     55 H19         -2.1260     2.5380     2.9610 hc         1 1S8       0.071200
     56 H20         -3.5090     4.5770     0.1540 ha         1 1S8       0.115500
     57 H21         -2.1170     5.9900    -1.3450 ha         1 1S8       0.112000
     58 H22          0.3710     5.8500    -1.2420 ha         1 1S8       0.110000
     59 H23          1.4640     4.2920     0.3690 ha         1 1S8       0.112000
     60 H24          0.0780     2.8790     1.8730 ha         1 1S8       0.115500
@<TRIPOS>BOND
     1     1     2 1   
     2     1    37 1   
     3     1    38 1   
     4     1    39 1   
     5     2     3 1   
     6     3     4 ar  
     7     3     8 ar  
     8     4     5 ar  
     9     4    40 1   
    10     5     6 ar  
    11     5    13 ar  
    12     6     7 ar  
    13     6    10 ar  
    14     7     8 ar  
    15     7    41 1   
    16     8     9 1   
    17     9    42 1   
    18    10    11 ar  
    19    11    12 ar  
    20    11    30 1   
    21    12    13 ar  
    22    13    14 1   
    23    14    15 1   
    24    14    43 1   
    25    15    16 ar  
    26    15    20 ar  
    27    16    17 ar  
    28    16    44 1   
    29    17    18 ar  
    30    17    45 1   
    31    18    19 ar  
    32    18    21 1   
    33    19    20 ar  
    34    19    46 1   
    35    20    47 1   
    36    21    22 1   
    37    21    48 1   
    38    22    23 2   
    39    22    24 1   
    40    24    25 ar  
    41    24    29 ar  
    42    25    26 ar  
    43    25    49 1   
    44    26    27 ar  
    45    26    50 1   
    46    27    28 ar  
    47    27    51 1   
    48    28    29 ar  
    49    28    52 1   
    50    29    53 1   
    51    30    31 1   
    52    30    54 1   
    53    30    55 1   
    54    31    32 ar  
    55    31    36 ar  
    56    32    33 ar  
    57    32    56 1   
    58    33    34 ar  
    59    33    57 1   
    60    34    35 ar  
    61    34    58 1   
    62    35    36 ar  
    63    35    59 1   
    64    36    60 1   
@<TRIPOS>SUBSTRUCTURE
     1 1S8         1 TEMP              0 ****  ****    0 ROOT
