@<TRIPOS>MOLECULE
1S9
   52    55     1     0     0
SMALL
bcc


@<TRIPOS>ATOM
      1 C1          -4.0820     3.5680    -0.4420 c3         1 1S9       0.121700
      2 O2          -4.9280     2.4490    -0.2710 os         1 1S9      -0.265900
      3 C3          -4.3630     1.2470    -0.0960 ca         1 1S9       0.118100
      4 C4          -3.0170     1.0030    -0.0540 ca         1 1S9      -0.204000
      5 C5          -2.5260    -0.3110     0.1290 ca         1 1S9      -0.309600
      6 C6          -3.4350    -1.3750     0.2560 ca         1 1S9       0.465600
      7 C7          -4.8210    -1.1110     0.2150 ca         1 1S9      -0.309300
      8 C8          -5.2920     0.1650     0.0430 ca         1 1S9       0.192100
      9 O9          -6.5730     0.5180    -0.0160 os         1 1S9      -0.240900
     10 C10         -7.5590    -0.4990     0.0660 c3         1 1S9      -0.029600
     11 C11         -8.9690     0.0990    -0.0700 c          1 1S9       0.940600
     12 O12         -9.8730    -0.7570    -0.0140 o          1 1S9      -0.811800
     13 O13         -9.0790     1.3240    -0.2160 o          1 1S9      -0.811800
     14 N14         -3.0250    -2.6610     0.4100 nb         1 1S9      -0.722000
     15 C15         -1.7360    -2.8500     0.4270 ca         1 1S9       0.668900
     16 N16         -0.7720    -1.9280     0.3230 nb         1 1S9      -0.815000
     17 C17         -1.1410    -0.6700     0.1850 ca         1 1S9       0.723200
     18 N18         -0.1950     0.2960     0.1020 nu         1 1S9      -0.746300
     19 C19          1.1990     0.1910     0.1070 ca         1 1S9       0.164600
     20 C20          1.9150    -0.9390    -0.2820 ca         1 1S9      -0.142000
     21 C21          3.3040    -0.9360    -0.2910 ca         1 1S9      -0.139500
     22 C22          4.0160     0.2010     0.0830 ca         1 1S9       0.030600
     23 C23          3.2960     1.3330     0.4690 ca         1 1S9      -0.139500
     24 C24          1.9170     1.3270     0.4840 ca         1 1S9      -0.142000
     25 N25          5.4120     0.2970     0.1220 ns         1 1S9      -0.462100
     26 C26          6.3370    -0.5490    -0.3940 c          1 1S9       0.683700
     27 O27          6.0600    -1.5620    -1.0160 o          1 1S9      -0.583100
     28 C28          7.7580    -0.1490    -0.1650 ca         1 1S9      -0.150600
     29 C29          8.1660     0.6020     0.9360 ca         1 1S9      -0.090000
     30 C30          9.5060     0.9200     1.1100 ca         1 1S9      -0.139000
     31 C31         10.4480     0.4950     0.1830 ca         1 1S9      -0.110000
     32 C32         10.0490    -0.2600    -0.9130 ca         1 1S9      -0.139000
     33 C33          8.7130    -0.5890    -1.0800 ca         1 1S9      -0.090000
     34 H1          -3.4490     3.7370     0.4330 h1         1 1S9       0.033367
     35 H2          -3.4470     3.4650    -1.3260 h1         1 1S9       0.033367
     36 H3          -4.7320     4.4290    -0.5750 h1         1 1S9       0.033367
     37 H4          -2.3330     1.8320    -0.1690 ha         1 1S9       0.116000
     38 H5          -5.4890    -1.9540     0.3180 ha         1 1S9       0.168000
     39 H6          -7.4030    -1.2430    -0.7240 h1         1 1S9       0.025700
     40 H7          -7.4830    -1.0260     1.0250 h1         1 1S9       0.025700
     41 H9          -1.3900    -3.8730     0.5420 h5         1 1S9       0.033100
     42 H10         -0.5260     1.2460     0.1490 hn         1 1S9       0.439800
     43 H11          1.4000    -1.8360    -0.5830 ha         1 1S9       0.149000
     44 H12          3.8120    -1.8340    -0.6010 ha         1 1S9       0.141000
     45 H13          3.8200     2.2320     0.7700 ha         1 1S9       0.141000
     46 H14          1.3910     2.2230     0.7930 ha         1 1S9       0.149000
     47 H15          5.7570     1.1660     0.4990 hn         1 1S9       0.314500
     48 H16          7.4560     0.9250     1.6880 ha         1 1S9       0.143000
     49 H17          9.8130     1.4930     1.9740 ha         1 1S9       0.133000
     50 H18         11.4920     0.7470     0.3170 ha         1 1S9       0.130000
     51 H19         10.7790    -0.5950    -1.6370 ha         1 1S9       0.133000
     52 H20          8.4090    -1.1820    -1.9320 ha         1 1S9       0.143000
@<TRIPOS>BOND
     1     1     2 1   
     2     1    34 1   
     3     1    35 1   
     4     1    36 1   
     5     2     3 1   
     6     3     4 ar  
     7     3     8 ar  
     8     4     5 ar  
     9     4    37 1   
    10     5     6 ar  
    11     5    17 ar  
    12     6     7 ar  
    13     6    14 ar  
    14     7     8 ar  
    15     7    38 1   
    16     8     9 1   
    17     9    10 1   
    18    10    11 1   
    19    10    39 1   
    20    10    40 1   
    21    11    12 1   
    22    11    13 1   
    23    14    15 ar  
    24    15    16 ar  
    25    15    41 1   
    26    16    17 ar  
    27    17    18 1   
    28    18    19 1   
    29    18    42 1   
    30    19    20 ar  
    31    19    24 ar  
    32    20    21 ar  
    33    20    43 1   
    34    21    22 ar  
    35    21    44 1   
    36    22    23 ar  
    37    22    25 1   
    38    23    24 ar  
    39    23    45 1   
    40    24    46 1   
    41    25    26 1   
    42    25    47 1   
    43    26    27 2   
    44    26    28 1   
    45    28    29 ar  
    46    28    33 ar  
    47    29    30 ar  
    48    29    48 1   
    49    30    31 ar  
    50    30    49 1   
    51    31    32 ar  
    52    31    50 1   
    53    32    33 ar  
    54    32    51 1   
    55    33    52 1   
@<TRIPOS>SUBSTRUCTURE
     1 1S9         1 TEMP              0 ****  ****    0 ROOT
