@<TRIPOS>MOLECULE
1S9
   52    55     1     0     0
SMALL
No Charge or Current Charge


@<TRIPOS>ATOM
      1 C1          -3.9550     3.6780    -0.1880 c3         1 1S9       0.144900
      2 O2          -4.8420     2.5460    -0.1680 os         1 1S9      -0.289100
      3 C3          -4.3880     1.2420    -0.0420 ca         1 1S9       0.118100
      4 C4          -3.0120     0.9400     0.0780 ca         1 1S9      -0.186000
      5 C5          -2.5850    -0.4050     0.2050 ca         1 1S9      -0.179000
      6 C6          -3.5400    -1.4520     0.2080 ca         1 1S9       0.072000
      7 C7          -4.9050    -1.1430     0.0890 ca         1 1S9      -0.226000
      8 C8          -5.3380     0.1950    -0.0350 ca         1 1S9       0.192100
      9 O9          -6.6810     0.5180    -0.1530 os         1 1S9      -0.264100
     10 C10         -7.7260    -0.4840    -0.1570 c3         1 1S9      -0.006400
     11 C11         -9.1510     0.1230    -0.3000 c          1 1S9       0.730000
     12 O12        -10.0970    -0.6550    -0.3120 o          1 1S9      -0.706500
     13 O13         -9.2850     1.3370    -0.3950 o          1 1S9      -0.706500
     14 N14         -3.1490    -2.7370     0.3260 nb         1 1S9      -0.196000
     15 C15         -1.8290    -2.9750     0.4420 ca         1 1S9       0.142900
     16 N16         -0.8470    -2.0560     0.4540 nb         1 1S9      -0.289000
     17 C17         -1.2200    -0.7710     0.3260 ca         1 1S9       0.394900
     18 N18         -0.2060     0.1870     0.3780 nu         1 1S9      -0.939900
     19 C19          1.1910     0.1430     0.2920 ca         1 1S9       0.303000
     20 C20          1.8750    -0.8730    -0.4020 ca         1 1S9      -0.124000
     21 C21          3.2800    -0.8720    -0.4800 ca         1 1S9      -0.121500
     22 C22          4.0280     0.1560     0.1340 ca         1 1S9      -0.062000
     23 C23          3.3410     1.1820     0.8090 ca         1 1S9      -0.121500
     24 C24          1.9360     1.1770     0.8830 ca         1 1S9      -0.124000
     25 N25          5.4500     0.2300     0.0970 ns         1 1S9      -0.136000
     26 C26          6.4270    -0.6440    -0.3710 c          1 1S9       0.616700
     27 O27          6.1720    -1.7430    -0.8520 o          1 1S9      -0.583100
     28 C28          7.8630    -0.1600    -0.2420 ca         1 1S9      -0.150600
     29 C29          8.1880     1.1050     0.3110 ca         1 1S9      -0.072000
     30 C30          9.5280     1.5180     0.4130 ca         1 1S9      -0.121000
     31 C31         10.5630     0.6830    -0.0330 ca         1 1S9      -0.092000
     32 C32         10.2570    -0.5710    -0.5830 ca         1 1S9      -0.121000
     33 C33          8.9190    -0.9900    -0.6870 ca         1 1S9      -0.072000
     34 H1          -3.3810     3.7380     0.7460 h1         1 1S9       0.033367
     35 H2          -3.2550     3.6100    -1.0310 h1         1 1S9       0.033367
     36 H3          -4.5280     4.6060    -0.2950 h1         1 1S9       0.033367
     37 H4          -2.2800     1.7390     0.0640 ha         1 1S9       0.098000
     38 H5          -5.6200    -1.9600     0.0950 ha         1 1S9       0.150000
     39 H6          -7.5790    -1.1810    -0.9910 h1         1 1S9       0.025700
     40 H7          -7.7050    -1.0560     0.7790 h1         1 1S9       0.025700
     41 H9          -1.5270    -4.0160     0.5410 h5         1 1S9       0.033100
     42 H10         -0.5690     1.1120     0.5910 hn         1 1S9       0.495000
     43 H11          1.3230    -1.6610    -0.9040 ha         1 1S9       0.131000
     44 H12          3.7620    -1.6710    -1.0330 ha         1 1S9       0.123000
     45 H13          3.8950     1.9910     1.2820 ha         1 1S9       0.123000
     46 H14          1.4270     1.9780     1.4120 ha         1 1S9       0.131000
     47 H15          5.8180     1.0880     0.4850 hn         1 1S9       0.148000
     48 H16          7.4170     1.7840     0.6680 ha         1 1S9       0.125000
     49 H17          9.7640     2.4910     0.8390 ha         1 1S9       0.115000
     50 H18         11.5990     1.0060     0.0470 ha         1 1S9       0.112000
     51 H19         11.0570    -1.2210    -0.9300 ha         1 1S9       0.115000
     52 H20          8.7080    -1.9670    -1.1180 ha         1 1S9       0.125000
@<TRIPOS>BOND
     1     1     2 1   
     2     1    34 1   
     3     1    35 1   
     4     1    36 1   
     5     2     3 1   
     6     3     4 ar  
     7     3     8 ar  
     8     4     5 ar  
     9     4    37 1   
    10     5     6 ar  
    11     5    17 ar  
    12     6     7 ar  
    13     6    14 ar  
    14     7     8 ar  
    15     7    38 1   
    16     8     9 1   
    17     9    10 1   
    18    10    11 1   
    19    10    39 1   
    20    10    40 1   
    21    11    12 1   
    22    11    13 1   
    23    14    15 ar  
    24    15    16 ar  
    25    15    41 1   
    26    16    17 ar  
    27    17    18 1   
    28    18    19 1   
    29    18    42 1   
    30    19    20 ar  
    31    19    24 ar  
    32    20    21 ar  
    33    20    43 1   
    34    21    22 ar  
    35    21    44 1   
    36    22    23 ar  
    37    22    25 1   
    38    23    24 ar  
    39    23    45 1   
    40    24    46 1   
    41    25    26 1   
    42    25    47 1   
    43    26    27 2   
    44    26    28 1   
    45    28    29 ar  
    46    28    33 ar  
    47    29    30 ar  
    48    29    48 1   
    49    30    31 ar  
    50    30    49 1   
    51    31    32 ar  
    52    31    50 1   
    53    32    33 ar  
    54    32    51 1   
    55    33    52 1   
@<TRIPOS>SUBSTRUCTURE
     1 1S9         1 TEMP              0 ****  ****    0 ROOT
