@<TRIPOS>MOLECULE
1SA
   14    14     1     0     0
SMALL
No Charge or Current Charge


@<TRIPOS>ATOM
      1 S1          -1.7050    -0.0900     0.3520 sy         1 1SA       1.117200
      2 O1          -2.1600     1.1190    -0.3360 o          1 1SA      -0.532500
      3 O2          -2.2800    -0.4990     1.6350 o          1 1SA      -0.532500
      4 N1          -2.1930    -1.2860    -0.6640 n8         1 1SA      -1.021100
      5 N2           0.7840    -0.8980     1.2780 nc         1 1SA      -0.161000
      6 N3           2.1550    -0.8230     1.0700 nc         1 1SA      -0.436000
      7 S2           1.0950     0.6210    -0.8350 ss         1 1SA      -0.204800
      8 C1           0.1050    -0.1950     0.3700 cd         1 1SA       0.150300
      9 C2           2.4260    -0.0770     0.0240 cd         1 1SA       0.690300
     10 N4           3.7110     0.1040    -0.3310 nv         1 1SA      -1.053900
     11 HN11        -2.8630    -1.7720    -0.0710 hn         1 1SA       0.486000
     12 HN12        -2.8040    -0.7600    -1.2880 hn         1 1SA       0.486000
     13 HN41         3.8870     0.4030    -1.2840 hn         1 1SA       0.505500
     14 HN42         4.3800    -0.5470     0.0650 hn         1 1SA       0.505500
@<TRIPOS>BOND
     1     1     2 2   
     2     1     3 2   
     3     1     4 1   
     4     1     8 1   
     5     4    11 1   
     6     4    12 1   
     7     5     6 1   
     8     5     8 2   
     9     6     9 2   
    10     7     8 1   
    11     7     9 1   
    12     9    10 1   
    13    10    13 1   
    14    10    14 1   
@<TRIPOS>SUBSTRUCTURE
     1 1SA         1 TEMP              0 ****  ****    0 ROOT
