@<TRIPOS>MOLECULE
1SA
   14    14     1     0     0
SMALL
bcc


@<TRIPOS>ATOM
      1 S1          -1.7050    -0.0050     0.3700 sy         1 1SA       1.258800
      2 O1          -1.9180     1.2000    -0.4150 o          1 1SA      -0.603300
      3 O2          -2.1470    -0.0630     1.7490 o          1 1SA      -0.603300
      4 N1          -2.2650    -1.3570    -0.3600 n8         1 1SA      -0.910700
      5 N2           0.6690    -1.1520     0.9520 nc         1 1SA      -0.161000
      6 N3           1.9910    -1.1200     0.7820 nc         1 1SA      -0.436000
      7 S2           1.0530     0.8170    -0.6160 ss         1 1SA      -0.204800
      8 C1           0.0420    -0.2390     0.3070 cd         1 1SA       0.150300
      9 C2           2.3700    -0.1430    -0.0160 cd         1 1SA       0.690300
     10 N4           3.6400     0.1130    -0.3190 nv         1 1SA      -0.943500
     11 HN11        -3.1650    -1.6530     0.0020 hn         1 1SA       0.430800
     12 HN12        -2.2610    -1.3130    -1.3730 hn         1 1SA       0.430800
     13 HN41         3.8910     0.7660    -1.0400 hn         1 1SA       0.450300
     14 HN42         4.3440    -0.5490    -0.0360 hn         1 1SA       0.450300
@<TRIPOS>BOND
     1     1     2 2   
     2     1     3 2   
     3     1     4 1   
     4     1     8 1   
     5     4    11 1   
     6     4    12 1   
     7     5     6 1   
     8     5     8 2   
     9     6     9 2   
    10     7     8 1   
    11     7     9 1   
    12     9    10 1   
    13    10    13 1   
    14    10    14 1   
@<TRIPOS>SUBSTRUCTURE
     1 1SA         1 TEMP              0 ****  ****    0 ROOT
