@<TRIPOS>MOLECULE
1SB
   37    38     1     0     0
SMALL
No Charge or Current Charge


@<TRIPOS>ATOM
      1 C1           3.1580    -1.0170    -0.2070 ca         1 1SB      -0.042300
      2 N1          -0.1910    -1.2940     0.2490 ns         1 1SB      -0.285900
      3 O1           0.4960     0.0650    -1.4780 o          1 1SB      -0.531100
      4 C2           1.9780    -1.7400    -0.8460 c3         1 1SB      -0.115100
      5 N2          -1.3900    -0.6520     0.5140 n2         1 1SB      -0.413300
      6 O2           5.7790     1.3820    -1.1880 os         1 1SB      -0.341100
      7 C3           0.7030    -0.8930    -0.7420 c          1 1SB       0.618100
      8 O3          -7.4990     1.5020     0.6330 oh         1 1SB      -0.529100
      9 C4          -2.4470    -0.9650    -0.1730 ce         1 1SB       0.379800
     10 C5          -3.7670    -0.3030     0.0560 ca         1 1SB      -0.169900
     11 C6           3.4630    -1.2160     1.1530 ca         1 1SB      -0.140000
     12 C7           4.5480    -0.5470     1.7430 ca         1 1SB      -0.072000
     13 C8           5.3380     0.3270     0.9780 ca         1 1SB      -0.191000
     14 C9           5.0400     0.5340    -0.3870 ca         1 1SB       0.142100
     15 C10          6.9100     2.1180    -0.6890 c3         1 1SB       0.148900
     16 C11          3.9530    -0.1390    -0.9690 ca         1 1SB      -0.119000
     17 C12         -4.8750    -0.6920    -0.7250 ca         1 1SB      -0.043500
     18 C13         -6.1300    -0.0860    -0.5330 ca         1 1SB      -0.183500
     19 C14         -6.2860     0.9120     0.4410 ca         1 1SB       0.152100
     20 C15         -5.1920     1.3050     1.2220 ca         1 1SB      -0.183500
     21 C16         -3.9350     0.7040     1.0340 ca         1 1SB      -0.043500
     22 HN1          0.0940    -2.1000     0.7990 hn         1 1SB       0.300500
     23 H2           2.1910    -1.9210    -1.9060 hc         1 1SB       0.065200
     24 H2A          1.8290    -2.7010    -0.3410 hc         1 1SB       0.065200
     25 HO3         -8.1390     1.1060     0.0040 ho         1 1SB       0.466000
     26 H4          -2.4090    -1.7310    -0.9510 h4         1 1SB      -0.020200
     27 H6           2.8590    -1.8900     1.7570 ha         1 1SB       0.111000
     28 H7           4.7760    -0.7070     2.7950 ha         1 1SB       0.111000
     29 H8           6.1710     0.8320     1.4580 ha         1 1SB       0.117000
     30 H10          7.3490     2.7270    -1.4880 h1         1 1SB       0.040367
     31 H10A         6.6090     2.7910     0.1250 h1         1 1SB       0.040367
     32 H10B         7.6850     1.4370    -0.3150 h1         1 1SB       0.040367
     33 H11          3.7270     0.0270    -2.0190 ha         1 1SB       0.130000
     34 H12         -4.7650    -1.4650    -1.4830 ha         1 1SB       0.124500
     35 H13         -6.9740    -0.3990    -1.1440 ha         1 1SB       0.123500
     36 H15         -5.3140     2.0790     1.9760 ha         1 1SB       0.123500
     37 H16         -3.0970     1.0230     1.6500 ha         1 1SB       0.124500
@<TRIPOS>BOND
     1     1     4 1   
     2     1    11 ar  
     3     1    16 ar  
     4     2     5 1   
     5     2     7 1   
     6     2    22 1   
     7     3     7 2   
     8     4     7 1   
     9     4    23 1   
    10     4    24 1   
    11     5     9 2   
    12     6    14 1   
    13     6    15 1   
    14     8    19 1   
    15     8    25 1   
    16     9    10 1   
    17     9    26 1   
    18    10    17 ar  
    19    10    21 ar  
    20    11    12 ar  
    21    11    27 1   
    22    12    13 ar  
    23    12    28 1   
    24    13    14 ar  
    25    13    29 1   
    26    14    16 ar  
    27    15    30 1   
    28    15    31 1   
    29    15    32 1   
    30    16    33 1   
    31    17    18 ar  
    32    17    34 1   
    33    18    19 ar  
    34    18    35 1   
    35    19    20 ar  
    36    20    21 ar  
    37    20    36 1   
    38    21    37 1   
@<TRIPOS>SUBSTRUCTURE
     1 1SB         1 TEMP              0 ****  ****    0 ROOT
