@<TRIPOS>MOLECULE
1SB
   37    38     1     0     0
SMALL
bcc


@<TRIPOS>ATOM
      1 C1           3.2280    -0.8290    -0.1760 ca         1 1SB      -0.042300
      2 N1          -0.3930    -1.0460    -0.4160 ns         1 1SB      -0.352900
      3 O1           0.9070     0.8060    -0.4870 o          1 1SB      -0.531100
      4 C2           1.9640    -1.3300    -0.8110 c3         1 1SB      -0.115100
      5 N2          -1.5370    -0.3550    -0.2560 n2         1 1SB      -0.413300
      6 O2           5.9380     1.4030    -1.0160 os         1 1SB      -0.317900
      7 C3           0.7940    -0.4010    -0.5460 c          1 1SB       0.685100
      8 O3          -7.6140     1.4130     0.4990 oh         1 1SB      -0.490100
      9 C4          -2.6160    -1.0220    -0.1650 ce         1 1SB       0.379800
     10 C5          -3.9070    -0.3720     0.0100 ca         1 1SB      -0.169900
     11 C6           3.5800    -1.2390     1.1100 ca         1 1SB      -0.158000
     12 C7           4.7390    -0.7540     1.6920 ca         1 1SB      -0.090000
     13 C8           5.5640     0.1390     1.0170 ca         1 1SB      -0.209000
     14 C9           5.2140     0.5480    -0.2670 ca         1 1SB       0.142100
     15 C10          7.1380     1.9210    -0.4790 c3         1 1SB       0.125700
     16 C11          4.0450     0.0610    -0.8540 ca         1 1SB      -0.137000
     17 C12         -5.0570    -1.1570     0.0740 ca         1 1SB      -0.061500
     18 C13         -6.3090    -0.5870     0.2360 ca         1 1SB      -0.201500
     19 C14         -6.4310     0.7960     0.3400 ca         1 1SB       0.152100
     20 C15         -5.2860     1.5950     0.2800 ca         1 1SB      -0.201500
     21 C16         -4.0450     1.0160     0.1170 ca         1 1SB      -0.061500
     22 HN1         -0.4210    -2.0590    -0.4610 hn         1 1SB       0.300500
     23 H2           2.0810    -1.3850    -1.8970 hc         1 1SB       0.065200
     24 H2A          1.7410    -2.3440    -0.4740 hc         1 1SB       0.065200
     25 HO3         -8.3320     0.7690     0.5210 ho         1 1SB       0.427000
     26 H4          -2.6270    -2.1150    -0.2150 h4         1 1SB      -0.020200
     27 H6           2.9510    -1.9360     1.6490 ha         1 1SB       0.129000
     28 H7           5.0140    -1.0730     2.6890 ha         1 1SB       0.129000
     29 H8           6.4650     0.4930     1.5000 ha         1 1SB       0.135000
     30 H10          7.5600     2.5750    -1.2390 h1         1 1SB       0.040367
     31 H10A         6.9630     2.5050     0.4280 h1         1 1SB       0.040367
     32 H10B         7.8600     1.1310    -0.2560 h1         1 1SB       0.040367
     33 H11          3.7880     0.3820    -1.8570 ha         1 1SB       0.148000
     34 H12         -4.9770    -2.2350    -0.0030 ha         1 1SB       0.142500
     35 H13         -7.1880    -1.2200     0.2820 ha         1 1SB       0.141500
     36 H15         -5.3800     2.6710     0.3590 ha         1 1SB       0.141500
     37 H16         -3.1690     1.6490     0.0720 ha         1 1SB       0.142500
@<TRIPOS>BOND
     1     1     4 1   
     2     1    11 ar  
     3     1    16 ar  
     4     2     5 1   
     5     2     7 1   
     6     2    22 1   
     7     3     7 2   
     8     4     7 1   
     9     4    23 1   
    10     4    24 1   
    11     5     9 2   
    12     6    14 1   
    13     6    15 1   
    14     8    19 1   
    15     8    25 1   
    16     9    10 1   
    17     9    26 1   
    18    10    17 ar  
    19    10    21 ar  
    20    11    12 ar  
    21    11    27 1   
    22    12    13 ar  
    23    12    28 1   
    24    13    14 ar  
    25    13    29 1   
    26    14    16 ar  
    27    15    30 1   
    28    15    31 1   
    29    15    32 1   
    30    16    33 1   
    31    17    18 ar  
    32    17    34 1   
    33    18    19 ar  
    34    18    35 1   
    35    19    20 ar  
    36    20    21 ar  
    37    20    36 1   
    38    21    37 1   
@<TRIPOS>SUBSTRUCTURE
     1 1SB         1 TEMP              0 ****  ****    0 ROOT
