@<TRIPOS>MOLECULE
1SE
   42    44     1     0     0
SMALL
No Charge or Current Charge


@<TRIPOS>ATOM
      1 C1          -9.1380    -0.3760     0.3050 ca         1 1SE      -0.080000
      2 C2          -9.2270     0.9620    -0.1090 ca         1 1SE      -0.143000
      3 C3          -8.0480     1.6760    -0.3740 ca         1 1SE       0.340900
      4 N4          -6.8150     1.1300    -0.2490 nb         1 1SE      -0.681000
      5 C5          -6.7100    -0.1750     0.1540 ca         1 1SE       0.283500
      6 C6          -7.8610    -0.9480     0.4360 ca         1 1SE      -0.101000
      7 C7          -5.3220    -0.8060     0.3000 c          1 1SE       0.514600
      8 O8          -5.1620    -1.9730     0.6570 o          1 1SE      -0.588100
      9 N9          -4.2710     0.0550    -0.0070 ns         1 1SE      -0.124000
     10 C10         -2.8560    -0.1050    -0.0080 ca         1 1SE      -0.037000
     11 C11         -2.0760     1.0050    -0.3790 ca         1 1SE      -0.122500
     12 C12         -0.6720     0.9260    -0.4050 ca         1 1SE      -0.119500
     13 C13         -0.0180    -0.2760    -0.0580 ca         1 1SE      -0.052000
     14 C14         -0.7990    -1.3860     0.3110 ca         1 1SE      -0.119500
     15 C15         -2.2030    -1.3070     0.3380 ca         1 1SE      -0.122500
     16 N16          1.3970    -0.4380    -0.0600 ns         1 1SE      -0.135000
     17 C17          2.4460     0.4280    -0.3520 c          1 1SE       0.627700
     18 O18          2.2820     1.5960    -0.6880 o          1 1SE      -0.578100
     19 C19          3.8420    -0.1550    -0.2320 ca         1 1SE      -0.212600
     20 C20          4.0650    -1.4960     0.1520 ca         1 1SE      -0.001000
     21 C21          5.3720    -1.9910     0.2500 ca         1 1SE      -0.185000
     22 C22          6.4760    -1.1780    -0.0280 ca         1 1SE       0.259100
     23 C23          6.2820     0.1700    -0.4160 ca         1 1SE      -0.309200
     24 C24          4.9580     0.6660    -0.5130 ca         1 1SE       0.048000
     25 N25          7.4230     1.0910    -0.7270 no         1 1SE       0.706200
     26 O26          8.5770     0.6510    -0.6400 o          1 1SE      -0.404500
     27 O27          7.1630     2.2540    -1.0570 o          1 1SE      -0.404500
     28 O28          7.7130    -1.7360     0.0900 oh         1 1SE      -0.512100
     29 H1         -10.0340    -0.9560     0.5180 ha         1 1SE       0.127000
     30 H2         -10.1930     1.4460    -0.2240 ha         1 1SE       0.129000
     31 H3          -8.0900     2.7150    -0.6960 h4         1 1SE       0.025100
     32 H4          -7.7610    -1.9820     0.7550 ha         1 1SE       0.150000
     33 H5          -4.5820     0.9790    -0.2820 hn         1 1SE       0.184000
     34 H6          -2.5590     1.9420    -0.6500 ha         1 1SE       0.133000
     35 H7          -0.1170     1.8110    -0.6990 ha         1 1SE       0.129000
     36 H8          -0.3170    -2.3230     0.5830 ha         1 1SE       0.129000
     37 H9          -2.7600    -2.1910     0.6300 ha         1 1SE       0.133000
     38 H10          1.6940    -1.3670     0.2040 hn         1 1SE       0.150000
     39 H11          3.2430    -2.1710     0.3790 ha         1 1SE       0.124000
     40 H12          5.5330    -3.0250     0.5460 ha         1 1SE       0.147000
     41 H13          4.7850     1.7010    -0.8100 ha         1 1SE       0.173000
     42 H14          8.3700    -1.0380    -0.1380 ho         1 1SE       0.524000
@<TRIPOS>BOND
     1     1     2 ar  
     2     1     6 ar  
     3     1    29 1   
     4     2     3 ar  
     5     2    30 1   
     6     3     4 ar  
     7     3    31 1   
     8     4     5 ar  
     9     5     6 ar  
    10     5     7 1   
    11     6    32 1   
    12     7     8 2   
    13     7     9 1   
    14     9    10 1   
    15     9    33 1   
    16    10    11 ar  
    17    10    15 ar  
    18    11    12 ar  
    19    11    34 1   
    20    12    13 ar  
    21    12    35 1   
    22    13    14 ar  
    23    13    16 1   
    24    14    15 ar  
    25    14    36 1   
    26    15    37 1   
    27    16    17 1   
    28    16    38 1   
    29    17    18 2   
    30    17    19 1   
    31    19    20 ar  
    32    19    24 ar  
    33    20    21 ar  
    34    20    39 1   
    35    21    22 ar  
    36    21    40 1   
    37    22    23 ar  
    38    22    28 1   
    39    23    24 ar  
    40    23    25 1   
    41    24    41 1   
    42    25    26 1   
    43    25    27 1   
    44    28    42 1   
@<TRIPOS>SUBSTRUCTURE
     1 1SE         1 TEMP              0 ****  ****    0 ROOT
