@<TRIPOS>MOLECULE
1SE
   42    44     1     0     0
SMALL
abcg2


@<TRIPOS>ATOM
      1 C1          -8.9350    -0.2910     0.4560 ca         1 1SE      -0.080000
      2 C2          -9.0270     0.9420    -0.1680 ca         1 1SE      -0.143000
      3 C3          -7.8540     1.5730    -0.5640 ca         1 1SE       0.340900
      4 N4          -6.6560     1.0460    -0.3690 nb         1 1SE      -0.681000
      5 C5          -6.5710    -0.1370     0.2320 ca         1 1SE       0.283500
      6 C6          -7.6810    -0.8470     0.6640 ca         1 1SE      -0.101000
      7 C7          -5.1960    -0.7070     0.4390 c          1 1SE       0.514600
      8 O8          -5.0360    -1.7830     0.9900 o          1 1SE      -0.588100
      9 N9          -4.2160     0.0860    -0.0360 ns         1 1SE      -0.124000
     10 C10         -2.8340    -0.1060    -0.0180 ca         1 1SE      -0.037000
     11 C11         -2.0450     0.9110    -0.5540 ca         1 1SE      -0.122500
     12 C12         -0.6640     0.8270    -0.5880 ca         1 1SE      -0.119500
     13 C13         -0.0260    -0.3030    -0.0760 ca         1 1SE      -0.052000
     14 C14         -0.8150    -1.3210     0.4570 ca         1 1SE      -0.119500
     15 C15         -2.1950    -1.2360     0.4920 ca         1 1SE      -0.122500
     16 N16          1.3590    -0.5040    -0.0560 ns         1 1SE      -0.135000
     17 C17          2.3460     0.3090    -0.4980 c          1 1SE       0.627700
     18 O18          2.1580     1.4220    -0.9610 o          1 1SE      -0.578100
     19 C19          3.7280    -0.2410    -0.3690 ca         1 1SE      -0.212600
     20 C20          4.0250    -1.6090    -0.3000 ca         1 1SE      -0.001000
     21 C21          5.3200    -2.0560    -0.2040 ca         1 1SE      -0.185000
     22 C22          6.3940    -1.1590    -0.1650 ca         1 1SE       0.259100
     23 C23          6.0890     0.2150    -0.2450 ca         1 1SE      -0.309200
     24 C24          4.7750     0.6570    -0.3560 ca         1 1SE       0.048000
     25 N25          7.1340     1.2040    -0.2180 no         1 1SE       0.706200
     26 O26          8.2890     0.8160    -0.1170 o          1 1SE      -0.404500
     27 O27          6.8440     2.3690    -0.2940 o          1 1SE      -0.404500
     28 O28          7.6060    -1.6700    -0.0620 oh         1 1SE      -0.512100
     29 H1          -9.8260    -0.8140     0.7760 ha         1 1SE       0.127000
     30 H2          -9.9840     1.4120    -0.3490 ha         1 1SE       0.129000
     31 H3          -7.8870     2.5380    -1.0570 h4         1 1SE       0.025100
     32 H4          -7.5690    -1.8060     1.1490 ha         1 1SE       0.150000
     33 H5          -4.5450     0.9460    -0.4580 hn         1 1SE       0.184000
     34 H6          -2.5170     1.7990    -0.9570 ha         1 1SE       0.133000
     35 H7          -0.1060     1.6460    -1.0100 ha         1 1SE       0.129000
     36 H8          -0.3440    -2.2110     0.8580 ha         1 1SE       0.129000
     37 H9          -2.7540    -2.0540     0.9160 ha         1 1SE       0.133000
     38 H10          1.6400    -1.3580     0.4010 hn         1 1SE       0.150000
     39 H11          3.2420    -2.3550    -0.3450 ha         1 1SE       0.124000
     40 H12          5.5300    -3.1160    -0.1620 ha         1 1SE       0.147000
     41 H13          4.5740     1.7170    -0.4270 ha         1 1SE       0.173000
     42 H14          8.2600    -0.9470    -0.0430 ho         1 1SE       0.524000
@<TRIPOS>BOND
     1     1     2 ar  
     2     1     6 ar  
     3     1    29 1   
     4     2     3 ar  
     5     2    30 1   
     6     3     4 ar  
     7     3    31 1   
     8     4     5 ar  
     9     5     6 ar  
    10     5     7 1   
    11     6    32 1   
    12     7     8 2   
    13     7     9 1   
    14     9    10 1   
    15     9    33 1   
    16    10    11 ar  
    17    10    15 ar  
    18    11    12 ar  
    19    11    34 1   
    20    12    13 ar  
    21    12    35 1   
    22    13    14 ar  
    23    13    16 1   
    24    14    15 ar  
    25    14    36 1   
    26    15    37 1   
    27    16    17 1   
    28    16    38 1   
    29    17    18 2   
    30    17    19 1   
    31    19    20 ar  
    32    19    24 ar  
    33    20    21 ar  
    34    20    39 1   
    35    21    22 ar  
    36    21    40 1   
    37    22    23 ar  
    38    22    28 1   
    39    23    24 ar  
    40    23    25 1   
    41    24    41 1   
    42    25    26 1   
    43    25    27 1   
    44    28    42 1   
@<TRIPOS>SUBSTRUCTURE
     1 1SE         1 TEMP              0 ****  ****    0 ROOT
