@<TRIPOS>MOLECULE
1SF
   26    27     1     0     0
SMALL
No Charge or Current Charge


@<TRIPOS>ATOM
      1 C1           1.8890     2.3060     0.4620 ca         1 1SF      -0.106000
      2 C2           0.5440     1.9050     0.4240 ca         1 1SF      -0.056000
      3 C3           0.1990     0.5370     0.3720 ca         1 1SF      -0.037000
      4 C4           1.2380    -0.4100     0.2240 ca         1 1SF      -0.079000
      5 C5           2.5990    -0.0190     0.2600 ca         1 1SF      -0.163200
      6 C6           2.9160     1.3520     0.3930 ca         1 1SF      -0.051000
      7 N7           3.6910    -1.0420     0.1410 no         1 1SF       0.694200
      8 O8           3.3700    -2.2330     0.0360 o          1 1SF      -0.396000
      9 O9           4.8660    -0.6490     0.1590 o          1 1SF      -0.396000
     10 N10         -1.1760     0.1300     0.1760 n          1 1SF      -0.244400
     11 C11         -1.5920    -1.1590     0.7840 c6         1 1SF       0.108000
     12 C12         -3.0620    -1.1260     1.2320 c6         1 1SF      -0.182400
     13 C13         -3.9570    -0.5410     0.1520 c          1 1SF       0.581000
     14 O14         -5.1110    -0.8990    -0.0120 o          1 1SF      -0.506000
     15 N15         -3.3790     0.3870    -0.6580 ns         1 1SF      -0.484500
     16 C16         -2.0860     0.8210    -0.6670 c          1 1SF       0.627000
     17 O17         -1.7650     1.7490    -1.3920 o          1 1SF      -0.545000
     18 H1           2.1370     3.3630     0.5360 ha         1 1SF       0.134000
     19 H2          -0.2310     2.6660     0.4690 ha         1 1SF       0.140000
     20 H3           0.9860    -1.4590     0.0810 ha         1 1SF       0.154000
     21 H4           3.9510     1.6880     0.4220 ha         1 1SF       0.155000
     22 H5          -1.4550    -1.9580     0.0410 h1         1 1SF       0.062700
     23 H6          -0.9530    -1.3920     1.6480 h1         1 1SF       0.062700
     24 H7          -3.4450    -2.0950     1.5740 hc         1 1SF       0.091700
     25 H8          -3.1140    -0.4260     2.0760 hc         1 1SF       0.091700
     26 H9          -3.9890     0.8260    -1.3290 hn         1 1SF       0.344500
@<TRIPOS>BOND
     1     1     2 ar  
     2     1     6 ar  
     3     1    18 1   
     4     2     3 ar  
     5     2    19 1   
     6     3     4 ar  
     7     3    10 1   
     8     4     5 ar  
     9     4    20 1   
    10     5     6 ar  
    11     5     7 1   
    12     6    21 1   
    13     7     8 1   
    14     7     9 1   
    15    10    11 1   
    16    10    16 1   
    17    11    12 1   
    18    11    22 1   
    19    11    23 1   
    20    12    13 1   
    21    12    24 1   
    22    12    25 1   
    23    13    14 2   
    24    13    15 1   
    25    15    16 1   
    26    15    26 1   
    27    16    17 2   
@<TRIPOS>SUBSTRUCTURE
     1 1SF         1 TEMP              0 ****  ****    0 ROOT
