@<TRIPOS>MOLECULE
1SF
   26    27     1     0     0
SMALL
abcg2


@<TRIPOS>ATOM
      1 C1           1.8450     2.2560     0.5730 ca         1 1SF      -0.106000
      2 C2           0.5170     1.8710     0.4830 ca         1 1SF      -0.056000
      3 C3           0.1890     0.5400     0.2360 ca         1 1SF      -0.037000
      4 C4           1.1970    -0.4030     0.0960 ca         1 1SF      -0.079000
      5 C5           2.5170     0.0060     0.2120 ca         1 1SF      -0.163200
      6 C6           2.8650     1.3260     0.4430 ca         1 1SF      -0.051000
      7 N7           3.5700    -0.9930     0.0760 no         1 1SF       0.694200
      8 O8           3.2450    -2.1380    -0.1260 o          1 1SF      -0.396000
      9 O9           4.7160    -0.6240     0.1730 o          1 1SF      -0.396000
     10 N10         -1.1590     0.1330     0.1680 n          1 1SF      -0.244400
     11 C11         -1.5640    -1.1130     0.8100 c6         1 1SF       0.108000
     12 C12         -2.9950    -0.9980     1.2900 c6         1 1SF      -0.182400
     13 C13         -3.9010    -0.5520     0.1820 c          1 1SF       0.581000
     14 O14         -5.0780    -0.8200     0.1020 o          1 1SF      -0.506000
     15 N15         -3.2860     0.2400    -0.7570 ns         1 1SF      -0.484500
     16 C16         -1.9850     0.7220    -0.7420 c          1 1SF       0.627000
     17 O17         -1.6460     1.6010    -1.5060 o          1 1SF      -0.545000
     18 H1           2.0890     3.2910     0.7650 ha         1 1SF       0.134000
     19 H2          -0.2620     2.6070     0.6230 ha         1 1SF       0.140000
     20 H3           0.9560    -1.4360    -0.1070 ha         1 1SF       0.154000
     21 H4           3.8960     1.6330     0.5310 ha         1 1SF       0.155000
     22 H5          -1.4600    -1.9560     0.1210 h1         1 1SF       0.062700
     23 H6          -0.9070    -1.2920     1.6580 h1         1 1SF       0.062700
     24 H7          -3.3450    -1.9520     1.6800 hc         1 1SF       0.091700
     25 H8          -3.0660    -0.2640     2.0990 hc         1 1SF       0.091700
     26 H9          -3.8750     0.6350    -1.4800 hn         1 1SF       0.344500
@<TRIPOS>BOND
     1     1     2 ar  
     2     1     6 ar  
     3     1    18 1   
     4     2     3 ar  
     5     2    19 1   
     6     3     4 ar  
     7     3    10 1   
     8     4     5 ar  
     9     4    20 1   
    10     5     6 ar  
    11     5     7 1   
    12     6    21 1   
    13     7     8 1   
    14     7     9 1   
    15    10    11 1   
    16    10    16 1   
    17    11    12 1   
    18    11    22 1   
    19    11    23 1   
    20    12    13 1   
    21    12    24 1   
    22    12    25 1   
    23    13    14 2   
    24    13    15 1   
    25    15    16 1   
    26    15    26 1   
    27    16    17 2   
@<TRIPOS>SUBSTRUCTURE
     1 1SF         1 TEMP              0 ****  ****    0 ROOT
