@<TRIPOS>MOLECULE
1SG
   53    56     1     0     0
SMALL
No Charge or Current Charge


@<TRIPOS>ATOM
      1 C1          -2.9000    -4.7500    -0.3060 c3         1 1SG       0.147900
      2 O2          -4.0010    -3.8280    -0.2210 os         1 1SG      -0.336100
      3 C3          -3.8200    -2.4630    -0.1070 ca         1 1SG       0.138100
      4 C4          -4.9660    -1.6600    -0.0310 ca         1 1SG      -0.094000
      5 C5          -4.8590    -0.2650     0.0890 ca         1 1SG       0.005200
      6 C6          -3.5820     0.3260     0.1300 ca         1 1SG      -0.095000
      7 C7          -2.4060    -0.4580     0.0560 ca         1 1SG      -0.115600
      8 C8          -2.5410    -1.8660    -0.0630 ca         1 1SG      -0.180000
      9 C9          -1.0480     0.2320     0.1040 c          1 1SG       0.620700
     10 O10         -0.9600     1.4520     0.2120 o          1 1SG      -0.584100
     11 N11          0.0580    -0.6080     0.0180 ns         1 1SG      -0.137000
     12 C12          1.4610    -0.3640     0.0280 ca         1 1SG      -0.048000
     13 C13          2.0360     0.9200     0.1510 ca         1 1SG      -0.122000
     14 C14          3.4330     1.0810     0.1530 ca         1 1SG      -0.122500
     15 C15          4.2860    -0.0380     0.0330 ca         1 1SG      -0.041000
     16 C16          3.7100    -1.3150    -0.0880 ca         1 1SG      -0.122500
     17 C17          2.3140    -1.4760    -0.0900 ca         1 1SG      -0.122000
     18 N18          5.7070     0.0470     0.0280 ns         1 1SG      -0.124000
     19 C19          6.5930     1.1170     0.1240 c          1 1SG       0.512600
     20 O20          6.2340     2.2880     0.2410 o          1 1SG      -0.585100
     21 C21          8.0700     0.7130     0.0710 ca         1 1SG       0.284500
     22 C22          9.0690     1.7110     0.1590 ca         1 1SG      -0.101000
     23 C23         10.4260     1.3490     0.1110 ca         1 1SG      -0.080000
     24 C24         10.7470    -0.0100    -0.0250 ca         1 1SG      -0.144000
     25 C25          9.7090    -0.9520    -0.1070 ca         1 1SG       0.338900
     26 N26          8.4000    -0.6100    -0.0610 nb         1 1SG      -0.682000
     27 C27         -6.0640     0.5620     0.1690 cc         1 1SG      -0.226400
     28 C28         -6.1180     1.4530     1.2210 cd         1 1SG       0.015600
     29 N29         -7.2510     2.2440     1.3260 ns         1 1SG      -0.512600
     30 C30         -8.3220     2.2180     0.4810 c          1 1SG       0.615000
     31 O31         -9.2890     2.9380     0.6270 o          1 1SG      -0.546000
     32 N32         -8.2150     1.3220    -0.5320 ns         1 1SG      -0.470500
     33 C33         -7.1860     0.4690    -0.7950 c          1 1SG       0.594200
     34 O34         -7.2200    -0.2860    -1.7530 o          1 1SG      -0.517000
     35 H1          -3.2720    -5.7780    -0.3910 h1         1 1SG       0.042367
     36 H2          -2.2810    -4.5390    -1.1870 h1         1 1SG       0.042367
     37 H3          -2.2700    -4.6900     0.5910 h1         1 1SG       0.042367
     38 H4          -5.9450    -2.1300    -0.0610 ha         1 1SG       0.144000
     39 H5          -3.5050     1.4080     0.2120 ha         1 1SG       0.133000
     40 H6          -1.6570    -2.4930    -0.1210 ha         1 1SG       0.117000
     41 H7          -0.1790    -1.5860    -0.0680 hn         1 1SG       0.152000
     42 H8           1.4210     1.8090     0.2470 ha         1 1SG       0.129000
     43 H9           3.8300     2.0860     0.2500 ha         1 1SG       0.131500
     44 H10          4.3470    -2.1930    -0.1820 ha         1 1SG       0.131500
     45 H11          1.8950    -2.4760    -0.1860 ha         1 1SG       0.129000
     46 H12          6.1730    -0.8470    -0.0640 hn         1 1SG       0.181000
     47 H13          8.7920     2.7570     0.2630 ha         1 1SG       0.151000
     48 H14         11.2080     2.1030     0.1770 ha         1 1SG       0.127000
     49 H15         11.7820    -0.3370    -0.0660 ha         1 1SG       0.128000
     50 H16          9.9300    -2.0140    -0.2120 h4         1 1SG       0.023100
     51 H17         -5.3550     1.5900     1.9870 h4         1 1SG       0.216000
     52 H18         -7.3450     2.9180     2.0810 hn         1 1SG       0.466000
     53 H19         -8.9940     1.2850    -1.1700 hn         1 1SG       0.346500
@<TRIPOS>BOND
     1     1     2 1   
     2     1    35 1   
     3     1    36 1   
     4     1    37 1   
     5     2     3 1   
     6     3     4 ar  
     7     3     8 ar  
     8     4     5 ar  
     9     4    38 1   
    10     5     6 ar  
    11     5    27 1   
    12     6     7 ar  
    13     6    39 1   
    14     7     8 ar  
    15     7     9 1   
    16     8    40 1   
    17     9    10 2   
    18     9    11 1   
    19    11    12 1   
    20    11    41 1   
    21    12    13 ar  
    22    12    17 ar  
    23    13    14 ar  
    24    13    42 1   
    25    14    15 ar  
    26    14    43 1   
    27    15    16 ar  
    28    15    18 1   
    29    16    17 ar  
    30    16    44 1   
    31    17    45 1   
    32    18    19 1   
    33    18    46 1   
    34    19    20 2   
    35    19    21 1   
    36    21    22 ar  
    37    21    26 ar  
    38    22    23 ar  
    39    22    47 1   
    40    23    24 ar  
    41    23    48 1   
    42    24    25 ar  
    43    24    49 1   
    44    25    26 ar  
    45    25    50 1   
    46    27    28 2   
    47    27    33 1   
    48    28    29 1   
    49    28    51 1   
    50    29    30 1   
    51    29    52 1   
    52    30    31 2   
    53    30    32 1   
    54    32    33 1   
    55    32    53 1   
    56    33    34 2   
@<TRIPOS>SUBSTRUCTURE
     1 1SG         1 TEMP              0 ****  ****    0 ROOT
