@<TRIPOS>MOLECULE
1SG
   53    56     1     0     0
SMALL
abcg2


@<TRIPOS>ATOM
      1 C1          -2.9760    -4.7860     0.1300 c3         1 1SG       0.147900
      2 O2          -4.0470    -3.8630     0.0650 os         1 1SG      -0.336100
      3 C3          -3.7740    -2.5490     0.1240 ca         1 1SG       0.138100
      4 C4          -4.8730    -1.6930     0.0440 ca         1 1SG      -0.094000
      5 C5          -4.7030    -0.3170     0.1180 ca         1 1SG       0.005200
      6 C6          -3.4180     0.2060     0.2650 ca         1 1SG      -0.095000
      7 C7          -2.3220    -0.6410     0.3360 ca         1 1SG      -0.115600
      8 C8          -2.4940    -2.0240     0.2720 ca         1 1SG      -0.180000
      9 C9          -0.9740    -0.0150     0.5060 c          1 1SG       0.620700
     10 O10         -0.8470     1.0590     1.0700 o          1 1SG      -0.584100
     11 N11          0.0550    -0.7190    -0.0220 ns         1 1SG      -0.137000
     12 C12          1.4270    -0.4430     0.0160 ca         1 1SG      -0.048000
     13 C13          1.9980     0.7090     0.5520 ca         1 1SG      -0.122000
     14 C14          3.3750     0.8910     0.5400 ca         1 1SG      -0.122500
     15 C15          4.2190    -0.0710    -0.0100 ca         1 1SG      -0.041000
     16 C16          3.6430    -1.2250    -0.5470 ca         1 1SG      -0.122500
     17 C17          2.2760    -1.4060    -0.5340 ca         1 1SG      -0.122000
     18 N18          5.6100     0.0250    -0.0650 ns         1 1SG      -0.124000
     19 C19          6.4140     1.0260     0.3440 c          1 1SG       0.512600
     20 O20          6.0450     2.0680     0.8610 o          1 1SG      -0.585100
     21 C21          7.8720     0.7520     0.1040 ca         1 1SG       0.284500
     22 C22          8.8180     1.6980     0.4710 ca         1 1SG      -0.101000
     23 C23         10.1540     1.4130     0.2330 ca         1 1SG      -0.080000
     24 C24         10.4880     0.2050    -0.3580 ca         1 1SG      -0.144000
     25 C25          9.4650    -0.6740    -0.6890 ca         1 1SG       0.338900
     26 N26          8.1890    -0.4070    -0.4640 nb         1 1SG      -0.682000
     27 C27         -5.8590     0.5940     0.0810 cc         1 1SG      -0.226400
     28 C28         -5.9620     1.6250     0.9480 cd         1 1SG       0.015600
     29 N29         -6.9930     2.5030     0.9300 ns         1 1SG      -0.512600
     30 C30         -8.0300     2.4290     0.0390 c          1 1SG       0.615000
     31 O31         -8.9530     3.2150     0.0250 o          1 1SG      -0.546000
     32 N32         -7.9200     1.3800    -0.8360 ns         1 1SG      -0.470500
     33 C33         -6.9120     0.4320    -0.9110 c          1 1SG       0.594200
     34 O34         -6.9510    -0.4340    -1.7640 o          1 1SG      -0.517000
     35 H1          -3.4160    -5.7740     0.0300 h1         1 1SG       0.042367
     36 H2          -2.2580    -4.6350    -0.6800 h1         1 1SG       0.042367
     37 H3          -2.4480    -4.7330     1.0860 h1         1 1SG       0.042367
     38 H4          -5.8600    -2.1240    -0.0540 ha         1 1SG       0.144000
     39 H5          -3.2720     1.2770     0.2980 ha         1 1SG       0.133000
     40 H6          -1.6440    -2.6850     0.3720 ha         1 1SG       0.117000
     41 H7          -0.1840    -1.5470    -0.5440 hn         1 1SG       0.152000
     42 H8           1.3870     1.4830     0.9840 ha         1 1SG       0.129000
     43 H9           3.7720     1.7970     0.9660 ha         1 1SG       0.131500
     44 H10          4.2700    -1.9930    -0.9820 ha         1 1SG       0.131500
     45 H11          1.8640    -2.3150    -0.9560 ha         1 1SG       0.129000
     46 H12          6.0990    -0.7600    -0.4760 hn         1 1SG       0.181000
     47 H13          8.5170     2.6290     0.9300 ha         1 1SG       0.151000
     48 H14         10.9220     2.1250     0.5050 ha         1 1SG       0.127000
     49 H15         11.5170    -0.0570    -0.5600 ha         1 1SG       0.128000
     50 H16          9.6880    -1.6280    -1.1530 h4         1 1SG       0.023100
     51 H17         -5.2240     1.8030     1.7180 h4         1 1SG       0.216000
     52 H18         -7.0190     3.2490     1.6100 hn         1 1SG       0.466000
     53 H19         -8.6680     1.2940    -1.5150 hn         1 1SG       0.346500
@<TRIPOS>BOND
     1     1     2 1   
     2     1    35 1   
     3     1    36 1   
     4     1    37 1   
     5     2     3 1   
     6     3     4 ar  
     7     3     8 ar  
     8     4     5 ar  
     9     4    38 1   
    10     5     6 ar  
    11     5    27 1   
    12     6     7 ar  
    13     6    39 1   
    14     7     8 ar  
    15     7     9 1   
    16     8    40 1   
    17     9    10 2   
    18     9    11 1   
    19    11    12 1   
    20    11    41 1   
    21    12    13 ar  
    22    12    17 ar  
    23    13    14 ar  
    24    13    42 1   
    25    14    15 ar  
    26    14    43 1   
    27    15    16 ar  
    28    15    18 1   
    29    16    17 ar  
    30    16    44 1   
    31    17    45 1   
    32    18    19 1   
    33    18    46 1   
    34    19    20 2   
    35    19    21 1   
    36    21    22 ar  
    37    21    26 ar  
    38    22    23 ar  
    39    22    47 1   
    40    23    24 ar  
    41    23    48 1   
    42    24    25 ar  
    43    24    49 1   
    44    25    26 ar  
    45    25    50 1   
    46    27    28 2   
    47    27    33 1   
    48    28    29 1   
    49    28    51 1   
    50    29    30 1   
    51    29    52 1   
    52    30    31 2   
    53    30    32 1   
    54    32    33 1   
    55    32    53 1   
    56    33    34 2   
@<TRIPOS>SUBSTRUCTURE
     1 1SG         1 TEMP              0 ****  ****    0 ROOT
