@<TRIPOS>MOLECULE
1SI
   36    38     1     0     0
SMALL
bcc


@<TRIPOS>ATOM
      1 N1           5.7060   -15.2060   -24.2210 ns         1 1SI      -0.343900
      2 N3           9.7810   -15.1680   -28.8290 nb         1 1SI      -0.662000
      3 C4           5.9660   -13.2780   -19.8720 ca         1 1SI       0.130900
      4 C5           4.9020   -14.0060   -19.3710 ca         1 1SI      -0.148000
      5 C6           4.1660   -14.7850   -20.2520 ca         1 1SI      -0.110000
      6 C7           4.4970   -14.8380   -21.5990 ca         1 1SI      -0.122000
      7 C8           5.8360   -16.3360   -26.1570 ce         1 1SI       0.270200
      8 C10          6.1290   -17.4670   -28.4260 cd         1 1SI      -0.260300
      9 C13          9.3560   -14.2810   -29.7050 ca         1 1SI       0.514600
     10 C15         11.8050   -13.9180   -28.6100 ca         1 1SI      -0.248300
     11 C17         10.0900   -13.1660   -30.0990 ca         1 1SI      -0.228300
     12 C1           5.9840   -14.0750   -23.5130 c          1 1SI       0.697700
     13 C11          6.6970   -16.9980   -29.6390 cd         1 1SI      -0.204300
     14 C12          7.0640   -15.7100   -29.4060 cc         1 1SI       0.316000
     15 C14         10.9820   -14.9840   -28.2880 ca         1 1SI       0.416200
     16 C16         11.3430   -12.9930   -29.5380 ca         1 1SI      -0.082000
     17 C2           5.5780   -14.1020   -22.0780 ca         1 1SI      -0.130600
     18 C3           6.3120   -13.3010   -21.2050 ca         1 1SI      -0.118000
     19 C9           6.2040   -16.4270   -27.5460 cc         1 1SI       0.228400
     20 N2           6.0360   -15.2530   -25.5190 n2         1 1SI      -0.383300
     21 O1           6.5390   -13.1120   -24.0020 o          1 1SI      -0.524100
     22 O2           6.7530   -15.3540   -28.1440 os         1 1SI      -0.262800
     23 H1           5.3540   -16.0360   -23.7550 hn         1 1SI       0.308500
     24 H2           4.6520   -13.9630   -18.3190 ha         1 1SI       0.154000
     25 H3           3.3210   -15.3510   -19.8840 ha         1 1SI       0.140000
     26 H4           3.8880   -15.4370   -22.2630 ha         1 1SI       0.135000
     27 H5           5.4040   -17.2350   -25.7140 h4         1 1SI      -0.001200
     28 H6           5.7330   -18.4480   -28.2220 ha         1 1SI       0.159000
     29 H7          12.7740   -13.8140   -28.1430 ha         1 1SI       0.143000
     30 H8           9.6920   -12.4570   -30.8120 ha         1 1SI       0.150000
     31 H9           6.8290   -17.5410   -30.5600 ha         1 1SI       0.167000
     32 H10         11.3000   -15.7260   -27.5650 h4         1 1SI       0.021100
     33 H11         11.9480   -12.1400   -29.8170 ha         1 1SI       0.138000
     34 H12          7.1480   -12.7130   -21.5600 ha         1 1SI       0.174000
     35 F1           6.6860   -12.5160   -19.0380 f          1 1SI      -0.135900
     36 S1           7.7510   -14.5130   -30.4480 ss         1 1SI      -0.297600
@<TRIPOS>BOND
     1     1    12 1   
     2     1    20 1   
     3     1    23 1   
     4     2     9 ar  
     5     2    15 ar  
     6     3     4 ar  
     7     3    18 ar  
     8     3    35 1   
     9     4     5 ar  
    10     4    24 1   
    11     5     6 ar  
    12     5    25 1   
    13     6    17 ar  
    14     6    26 1   
    15     7    19 1   
    16     7    20 2   
    17     7    27 1   
    18     8    13 1   
    19     8    19 2   
    20     8    28 1   
    21     9    11 ar  
    22     9    36 1   
    23    10    15 ar  
    24    10    16 ar  
    25    10    29 1   
    26    11    16 ar  
    27    11    30 1   
    28    12    17 1   
    29    12    21 2   
    30    13    14 2   
    31    13    31 1   
    32    14    22 1   
    33    14    36 1   
    34    15    32 1   
    35    16    33 1   
    36    17    18 ar  
    37    18    34 1   
    38    19    22 1   
@<TRIPOS>SUBSTRUCTURE
     1 1SI         1 TEMP              0 ****  ****    0 ROOT
