@<TRIPOS>MOLECULE
1SI
   36    38     1     0     0
SMALL
No Charge or Current Charge


@<TRIPOS>ATOM
      1 N1           5.2510   -14.6100   -24.1040 ns         1 1SI      -0.276900
      2 N3          10.0420   -15.1780   -31.3610 nb         1 1SI      -0.662000
      3 C4           5.4790   -13.6830   -19.2670 ca         1 1SI       0.166000
      4 C5           4.1110   -13.9490   -19.1210 ca         1 1SI      -0.130000
      5 C6           3.3520   -14.3150   -20.2430 ca         1 1SI      -0.092000
      6 C7           3.9590   -14.4150   -21.5080 ca         1 1SI      -0.104000
      7 C8           6.2380   -15.8620   -25.7820 ce         1 1SI       0.270200
      8 C10          7.3690   -17.1730   -27.6880 cd         1 1SI      -0.177000
      9 C13          9.2300   -14.5420   -30.4890 ca         1 1SI       0.449300
     10 C15         11.9460   -14.2660   -30.1720 ca         1 1SI      -0.165000
     11 C17          9.7160   -13.7430   -29.4370 ca         1 1SI      -0.145000
     12 C1           6.0420   -14.2450   -23.0160 c          1 1SI       0.630700
     13 C11          7.7250   -16.8500   -29.0160 cd         1 1SI      -0.121000
     14 C12          7.3710   -15.5440   -29.1740 cc         1 1SI       0.206300
     15 C14         11.3780   -15.0390   -31.1990 ca         1 1SI       0.350900
     16 C16         11.1030   -13.5990   -29.2690 ca         1 1SI      -0.064000
     17 C2           5.3440   -14.1490   -21.6700 ca         1 1SI      -0.130600
     18 C3           6.0930   -13.7810   -20.5250 ca         1 1SI      -0.100000
     19 C9           6.7880   -16.0590   -27.1240 cc         1 1SI       0.118700
     20 N2           5.7250   -14.7320   -25.4000 n2         1 1SI      -0.383300
     21 O1           7.2420   -14.0170   -23.1360 o          1 1SI      -0.524100
     22 O2           6.7580   -15.0380   -28.0590 os         1 1SI      -0.174000
     23 H1           4.2710   -14.7750   -23.9010 hn         1 1SI       0.308500
     24 H2           3.6440   -13.8700   -18.1430 ha         1 1SI       0.136000
     25 H3           2.2890   -14.5220   -20.1340 ha         1 1SI       0.122000
     26 H4           3.3350   -14.7020   -22.3510 ha         1 1SI       0.117000
     27 H5           6.2980   -16.7260   -25.1170 h4         1 1SI      -0.001200
     28 H6           7.5100   -18.1320   -27.1980 ha         1 1SI       0.141000
     29 H7          13.0270   -14.1870   -30.0860 ha         1 1SI       0.125000
     30 H8           9.0260   -13.2400   -28.7660 ha         1 1SI       0.132000
     31 H9           8.1770   -17.4980   -29.7590 ha         1 1SI       0.149000
     32 H10         12.0100   -15.5640   -31.9130 h4         1 1SI       0.021100
     33 H11         11.5110   -12.9900   -28.4650 ha         1 1SI       0.120000
     34 H12          7.1570   -13.5680   -20.6050 ha         1 1SI       0.156000
     35 F1           6.2120   -13.3300   -18.1880 f          1 1SI      -0.171000
     36 S1           7.4750   -14.7530   -30.7350 ss         1 1SI      -0.297600
@<TRIPOS>BOND
     1     1    12 1   
     2     1    20 1   
     3     1    23 1   
     4     2     9 ar  
     5     2    15 ar  
     6     3     4 ar  
     7     3    18 ar  
     8     3    35 1   
     9     4     5 ar  
    10     4    24 1   
    11     5     6 ar  
    12     5    25 1   
    13     6    17 ar  
    14     6    26 1   
    15     7    19 1   
    16     7    20 2   
    17     7    27 1   
    18     8    13 1   
    19     8    19 2   
    20     8    28 1   
    21     9    11 ar  
    22     9    36 1   
    23    10    15 ar  
    24    10    16 ar  
    25    10    29 1   
    26    11    16 ar  
    27    11    30 1   
    28    12    17 1   
    29    12    21 2   
    30    13    14 2   
    31    13    31 1   
    32    14    22 1   
    33    14    36 1   
    34    15    32 1   
    35    16    33 1   
    36    17    18 ar  
    37    18    34 1   
    38    19    22 1   
@<TRIPOS>SUBSTRUCTURE
     1 1SI         1 TEMP              0 ****  ****    0 ROOT
