@<TRIPOS>MOLECULE
1SJ
   48    48     1     0     0
SMALL
bcc


@<TRIPOS>ATOM
      1 CAA          4.2920     0.6110     1.4760 c3         1 1SJ      -0.086100
      2 CAJ          4.3440    -0.6000     0.5570 c3         1 1SJ      -0.085400
      3 CAT          3.2130    -0.6700    -0.4630 c3         1 1SJ       0.155100
      4 CAK          3.4080    -1.8580    -1.4010 c3         1 1SJ      -0.085400
      5 CAB          2.3780    -1.9760    -2.5160 c3         1 1SJ      -0.086100
      6 OAO          1.9790    -0.7730     0.2310 os         1 1SJ      -0.411600
      7 CAV          0.9330     0.0510    -0.2140 c6         1 1SJ       0.134100
      8 CAL          1.0490     1.4740     0.3190 c6         1 1SJ      -0.069200
      9 CAS         -0.1860     2.2850     0.0540 ce         1 1SJ      -0.134400
     10 CAR         -0.0950     3.8010     0.1820 c          1 1SJ       0.917800
     11 OAH          1.0180     4.2530     0.5160 o          1 1SJ      -0.822300
     12 OAG         -1.1270     4.4630    -0.0440 o          1 1SJ      -0.822300
     13 CAI         -1.3430     1.7010    -0.2570 c2         1 1SJ      -0.265200
     14 CAU         -1.5520     0.2160    -0.3570 c6         1 1SJ       0.261700
     15 NAM         -2.7890    -0.2060     0.2610 nu         1 1SJ      -0.895200
     16 CAQ         -4.0100    -0.0770    -0.3490 c2         1 1SJ       0.812100
     17 NAE         -4.2380     0.1970    -1.5810 n2         1 1SJ      -0.929100
     18 NAD         -5.0680    -0.3680     0.4830 nv         1 1SJ      -0.920800
     19 CAW         -0.3870    -0.5650     0.2540 c6         1 1SJ       0.104700
     20 NAN         -0.5020    -1.9580    -0.0910 ns         1 1SJ      -0.551900
     21 CAP         -0.2750    -2.9770     0.7550 c          1 1SJ       0.679100
     22 OAF         -0.0040    -2.8250     1.9380 o          1 1SJ      -0.615100
     23 CAC         -0.4040    -4.3520     0.1460 c3         1 1SJ      -0.179100
     24 H1           3.3980     0.6070     2.0990 hc         1 1SJ       0.033867
     25 H2           5.1570     0.6280     2.1400 hc         1 1SJ       0.033867
     26 H3           4.2960     1.5420     0.9070 hc         1 1SJ       0.033867
     27 H4           5.2890    -0.5970     0.0070 hc         1 1SJ       0.035200
     28 H5           4.3420    -1.5200     1.1510 hc         1 1SJ       0.035200
     29 H6           3.2320     0.2520    -1.0630 h1         1 1SJ       0.042700
     30 H7           4.4040    -1.7680    -1.8450 hc         1 1SJ       0.035200
     31 H8           3.4220    -2.7790    -0.8090 hc         1 1SJ       0.035200
     32 H9           1.3860    -2.2030    -2.1280 hc         1 1SJ       0.033867
     33 H10          2.3100    -1.0560    -3.0980 hc         1 1SJ       0.033867
     34 H11          2.6440    -2.7800    -3.2040 hc         1 1SJ       0.033867
     35 H12          0.9160     0.0890    -1.3150 h1         1 1SJ       0.025700
     36 H13          1.2470     1.4400     1.3960 hc         1 1SJ       0.068200
     37 H14          1.9170     1.9700    -0.1210 hc         1 1SJ       0.068200
     38 H17         -2.2150     2.3170    -0.4490 ha         1 1SJ       0.155000
     39 H19         -1.6060    -0.0600    -1.4180 h1         1 1SJ       0.041700
     40 H20         -2.7830    -0.2160     1.2690 hn         1 1SJ       0.416800
     41 H21         -3.3850     0.3370    -2.1060 hn         1 1SJ       0.389400
     42 H22         -4.9590    -0.1450     1.4600 hn         1 1SJ       0.397800
     43 H23         -5.9580    -0.0680     0.1200 hn         1 1SJ       0.397800
     44 H24         -0.4380    -0.4880     1.3450 h1         1 1SJ       0.093700
     45 H25         -0.7320    -2.1760    -1.0470 hn         1 1SJ       0.301500
     46 H26          0.5210    -4.9060     0.3060 hc         1 1SJ       0.050367
     47 H27         -1.2000    -4.8990     0.6520 hc         1 1SJ       0.050367
     48 H28         -0.6190    -4.3420    -0.9210 hc         1 1SJ       0.050367
@<TRIPOS>BOND
     1     1     2 1   
     2     1    24 1   
     3     1    25 1   
     4     1    26 1   
     5     2     3 1   
     6     2    27 1   
     7     2    28 1   
     8     3     4 1   
     9     3     6 1   
    10     3    29 1   
    11     4     5 1   
    12     4    30 1   
    13     4    31 1   
    14     5    32 1   
    15     5    33 1   
    16     5    34 1   
    17     6     7 1   
    18     7     8 1   
    19     7    19 1   
    20     7    35 1   
    21     8     9 1   
    22     8    36 1   
    23     8    37 1   
    24     9    10 1   
    25     9    13 2   
    26    10    11 1   
    27    10    12 1   
    28    13    14 1   
    29    13    38 1   
    30    14    15 1   
    31    14    19 1   
    32    14    39 1   
    33    15    16 1   
    34    15    40 1   
    35    16    17 2   
    36    16    18 1   
    37    17    41 1   
    38    18    42 1   
    39    18    43 1   
    40    19    20 1   
    41    19    44 1   
    42    20    21 1   
    43    20    45 1   
    44    21    22 2   
    45    21    23 1   
    46    23    46 1   
    47    23    47 1   
    48    23    48 1   
@<TRIPOS>SUBSTRUCTURE
     1 1SJ         1 TEMP              0 ****  ****    0 ROOT
