@<TRIPOS>MOLECULE
1SJ
   48    48     1     0     0
SMALL
No Charge or Current Charge


@<TRIPOS>ATOM
      1 CAA          4.3190     0.4910     1.5900 c3         1 1SJ      -0.086100
      2 CAJ          4.3760    -0.6780     0.5830 c3         1 1SJ      -0.085400
      3 CAT          3.2610    -0.6440    -0.4910 c3         1 1SJ       0.178300
      4 CAK          3.4030    -1.8090    -1.5090 c3         1 1SJ      -0.085400
      5 CAB          2.3790    -1.8190    -2.6630 c3         1 1SJ      -0.086100
      6 OAO          1.9980    -0.7760     0.1950 os         1 1SJ      -0.458000
      7 CAV          0.8780     0.0210    -0.2640 c6         1 1SJ       0.157300
      8 CAL          1.0520     1.5080     0.1490 c6         1 1SJ      -0.069200
      9 CAS         -0.2280     2.3580    -0.0180 ce         1 1SJ      -0.134400
     10 CAR         -0.0730     3.8680     0.0900 c          1 1SJ       0.707200
     11 OAH          1.0350     4.3350     0.3140 o          1 1SJ      -0.717000
     12 OAG         -1.0650     4.5720    -0.0470 o          1 1SJ      -0.717000
     13 CAI         -1.4310     1.7570    -0.2380 c2         1 1SJ      -0.315200
     14 CAU         -1.6210     0.2600    -0.3760 c6         1 1SJ       0.261700
     15 NAM         -2.9110    -0.0750     0.2380 nu         1 1SJ      -0.950400
     16 CAQ         -4.0240    -0.2870    -0.4260 c2         1 1SJ       0.812100
     17 NAE         -4.3270     0.3740    -1.4270 n2         1 1SJ      -0.929100
     18 NAD         -4.8710    -0.6340     0.4890 nv         1 1SJ      -1.031200
     19 CAW         -0.4620    -0.5360     0.2920 c6         1 1SJ       0.104700
     20 NAN         -0.6040    -1.9910     0.0510 ns         1 1SJ      -0.484900
     21 CAP         -0.2570    -2.9860     0.9330 c          1 1SJ       0.612100
     22 OAF          0.0990    -2.7610     2.0820 o          1 1SJ      -0.615100
     23 CAC         -0.3750    -4.3980     0.3740 c3         1 1SJ      -0.179100
     24 H1           3.4010     0.4490     2.1880 hc         1 1SJ       0.033867
     25 H2           5.1730     0.4450     2.2750 hc         1 1SJ       0.033867
     26 H3           4.3500     1.4550     1.0670 hc         1 1SJ       0.033867
     27 H4           5.3510    -0.6540     0.0810 hc         1 1SJ       0.035200
     28 H5           4.3280    -1.6270     1.1320 hc         1 1SJ       0.035200
     29 H6           3.3290     0.3110    -1.0300 h1         1 1SJ       0.042700
     30 H7           4.4070    -1.7600    -1.9490 hc         1 1SJ       0.035200
     31 H8           3.3460    -2.7660    -0.9760 hc         1 1SJ       0.035200
     32 H9           1.3720    -2.0460    -2.2930 hc         1 1SJ       0.033867
     33 H10          2.3580    -0.8500    -3.1750 hc         1 1SJ       0.033867
     34 H11          2.6450    -2.5880    -3.3980 hc         1 1SJ       0.033867
     35 H12          0.8340    -0.0300    -1.3600 h1         1 1SJ       0.025700
     36 H13          1.3680     1.5570     1.2000 hc         1 1SJ       0.068200
     37 H14          1.8660     1.9510    -0.4390 hc         1 1SJ       0.068200
     38 H17         -2.3350     2.3570    -0.3440 ha         1 1SJ       0.205000
     39 H19         -1.6290     0.0050    -1.4470 h1         1 1SJ       0.041700
     40 H20         -2.8580    -0.7190     1.0160 hn         1 1SJ       0.472000
     41 H21         -3.4500     0.8130    -1.7200 hn         1 1SJ       0.389400
     42 H22         -4.7290    -0.0410     1.2920 hn         1 1SJ       0.453000
     43 H23         -5.8080    -0.5530     0.1230 hn         1 1SJ       0.453000
     44 H24         -0.4880    -0.3500     1.3750 h1         1 1SJ       0.093700
     45 H25         -0.9040    -2.2940    -0.8670 hn         1 1SJ       0.301500
     46 H26         -0.1100    -5.1680     1.1070 hc         1 1SJ       0.050367
     47 H27         -1.3870    -4.5450    -0.0190 hc         1 1SJ       0.050367
     48 H28          0.2390    -4.4740    -0.5310 hc         1 1SJ       0.050367
@<TRIPOS>BOND
     1     1     2 1   
     2     1    24 1   
     3     1    25 1   
     4     1    26 1   
     5     2     3 1   
     6     2    27 1   
     7     2    28 1   
     8     3     4 1   
     9     3     6 1   
    10     3    29 1   
    11     4     5 1   
    12     4    30 1   
    13     4    31 1   
    14     5    32 1   
    15     5    33 1   
    16     5    34 1   
    17     6     7 1   
    18     7     8 1   
    19     7    19 1   
    20     7    35 1   
    21     8     9 1   
    22     8    36 1   
    23     8    37 1   
    24     9    10 1   
    25     9    13 2   
    26    10    11 1   
    27    10    12 1   
    28    13    14 1   
    29    13    38 1   
    30    14    15 1   
    31    14    19 1   
    32    14    39 1   
    33    15    16 1   
    34    15    40 1   
    35    16    17 2   
    36    16    18 1   
    37    17    41 1   
    38    18    42 1   
    39    18    43 1   
    40    19    20 1   
    41    19    44 1   
    42    20    21 1   
    43    20    45 1   
    44    21    22 2   
    45    21    23 1   
    46    23    46 1   
    47    23    47 1   
    48    23    48 1   
@<TRIPOS>SUBSTRUCTURE
     1 1SJ         1 TEMP              0 ****  ****    0 ROOT
