@<TRIPOS>MOLECULE
1SK
   50    53     1     0     0
SMALL
No Charge or Current Charge


@<TRIPOS>ATOM
      1 N1         -17.4420    41.3300   -16.3190 nb         1 1SK      -0.288000
      2 N3         -16.5930    39.2160   -15.5670 nb         1 1SK      -0.259000
      3 C4         -17.8180    40.7570   -17.4720 ca         1 1SK       0.415900
      4 C5         -17.6010    39.3800   -17.7260 ca         1 1SK      -0.188000
      5 C6         -16.9620    38.6040   -16.7150 ca         1 1SK       0.089000
      6 C7         -16.7310    37.2110   -16.9440 ca         1 1SK      -0.145600
      7 C8         -17.1450    36.6460   -18.1730 ca         1 1SK      -0.024000
      8 C10        -17.9990    38.7810   -18.9410 ca         1 1SK      -0.058000
      9 C15        -18.7340    43.0390   -18.2680 c3         1 1SK       0.288800
     10 C17        -16.5620    43.7530   -19.4110 ca         1 1SK      -0.048000
     11 C20        -15.8670    45.3670   -17.2310 ca         1 1SK      -0.110000
     12 C21        -17.0680    44.6430   -17.2060 ca         1 1SK      -0.054000
     13 C22        -19.7180    43.5360   -19.3780 c3         1 1SK       0.155800
     14 C24        -21.4380    41.5840   -19.5210 cy         1 1SK       0.147300
     15 C26        -22.1610    43.4100   -20.2370 cy         1 1SK       0.147300
     16 F31        -13.1990    43.8960   -20.3340 f          1 1SK      -0.108333
     17 F29        -14.8970    43.5600   -21.6340 f          1 1SK      -0.108333
     18 F30        -14.2250    45.5820   -21.2540 f          1 1SK      -0.108333
     19 C18        -15.3470    44.4780   -19.4500 ca         1 1SK      -0.193300
     20 C19        -15.0100    45.2900   -18.3400 ca         1 1SK       0.164000
     21 Cl28       -13.5180    46.2320   -18.2890 cl         1 1SK      -0.167000
     22 C16        -17.4250    43.8310   -18.2980 ca         1 1SK      -0.102300
     23 N23        -21.0980    43.0170   -19.2670 nq         1 1SK      -0.719600
     24 C25        -22.8900    42.1300   -19.7120 cy         1 1SK      -0.103400
     25 N14        -18.4450    41.5910   -18.3960 nu         1 1SK      -0.917100
     26 C9         -17.7700    37.4200   -19.1570 ca         1 1SK      -0.135000
     27 C11        -16.0590    36.2680   -15.9510 c          1 1SK       0.616700
     28 N13        -15.6330    36.7220   -14.7560 nt         1 1SK      -0.597000
     29 O12        -15.8850    35.0840   -16.1950 o          1 1SK      -0.634100
     30 C2         -16.8450    40.5300   -15.4240 ca         1 1SK       0.193900
     31 H1         -16.9830    35.5890   -18.3770 ha         1 1SK       0.148000
     32 H2         -18.4830    39.3530   -19.7270 ha         1 1SK       0.104000
     33 H3         -19.2350    43.2260   -17.3070 h1         1 1SK       0.105700
     34 H4         -16.8470    43.1130   -20.2440 ha         1 1SK       0.129000
     35 H5         -15.5970    45.9930   -16.3840 ha         1 1SK       0.139000
     36 H6         -17.7190    44.7130   -16.3360 ha         1 1SK       0.129000
     37 H7         -19.3150    43.2840   -20.3670 h1         1 1SK       0.042700
     38 H8         -19.7680    44.6320   -19.3150 h1         1 1SK       0.042700
     39 H9         -21.3110    40.8980   -18.6750 h1         1 1SK       0.046450
     40 H10        -21.0030    41.1550   -20.4330 h1         1 1SK       0.046450
     41 H11        -21.8720    43.3540   -21.2940 h1         1 1SK       0.046450
     42 H12        -22.6780    44.3550   -20.0320 h1         1 1SK       0.046450
     43 H14        -23.4550    42.2700   -18.7840 hc         1 1SK       0.063200
     44 H15        -23.5130    41.5980   -20.4380 hc         1 1SK       0.063200
     45 H16        -18.8490    41.1250   -19.2010 hn         1 1SK       0.496000
     46 H17        -18.0780    36.9610   -20.0940 ha         1 1SK       0.123000
     47 H18        -15.1920    36.0830   -14.1130 hn         1 1SK       0.335500
     48 H19        -15.7600    37.6940   -14.5190 hn         1 1SK       0.335500
     49 H20        -16.5360    40.9900   -14.4870 h5         1 1SK       0.045100
     50 C27        -14.4180    44.3780   -20.6690 c3         1 1SK       0.364300
@<TRIPOS>BOND
     1     1     3 ar  
     2     1    30 ar  
     3     2     5 ar  
     4     2    30 ar  
     5     3     4 ar  
     6     3    25 1   
     7     4     5 ar  
     8     4     8 ar  
     9     5     6 ar  
    10     6     7 ar  
    11     6    27 1   
    12     7    26 ar  
    13     7    31 1   
    14     8    26 ar  
    15     8    32 1   
    16     9    13 1   
    17     9    22 1   
    18     9    25 1   
    19     9    33 1   
    20    10    19 ar  
    21    10    22 ar  
    22    10    34 1   
    23    11    12 ar  
    24    11    20 ar  
    25    11    35 1   
    26    12    22 ar  
    27    12    36 1   
    28    13    23 1   
    29    13    37 1   
    30    13    38 1   
    31    14    23 1   
    32    14    24 1   
    33    14    39 1   
    34    14    40 1   
    35    15    23 1   
    36    15    24 1   
    37    15    41 1   
    38    15    42 1   
    39    16    50 1   
    40    17    50 1   
    41    18    50 1   
    42    19    20 ar  
    43    19    50 1   
    44    20    21 1   
    45    24    43 1   
    46    24    44 1   
    47    25    45 1   
    48    26    46 1   
    49    27    28 1   
    50    27    29 2   
    51    28    47 1   
    52    28    48 1   
    53    30    49 1   
@<TRIPOS>SUBSTRUCTURE
     1 1SK         1 TEMP              0 ****  ****    0 ROOT
