@<TRIPOS>MOLECULE
1SK
   50    53     1     0     0
SMALL
abcg2


@<TRIPOS>ATOM
      1 N1         -17.5070    41.2740   -16.3610 nb         1 1SK      -0.288000
      2 N3         -16.7550    39.1660   -15.5910 nb         1 1SK      -0.259000
      3 C4         -17.8170    40.7690   -17.5420 ca         1 1SK       0.415900
      4 C5         -17.6290    39.3670   -17.8250 ca         1 1SK      -0.188000
      5 C6         -17.0690    38.5920   -16.7840 ca         1 1SK       0.089000
      6 C7         -16.8500    37.2010   -16.9970 ca         1 1SK      -0.145600
      7 C8         -17.2080    36.6580   -18.2120 ca         1 1SK      -0.024000
      8 C10        -17.9870    38.7660   -19.0410 ca         1 1SK      -0.058000
      9 C15        -18.6000    42.9950   -18.2130 c3         1 1SK       0.288800
     10 C17        -16.4210    43.6370   -19.3270 ca         1 1SK      -0.048000
     11 C20        -16.0950    45.7770   -17.6040 ca         1 1SK      -0.110000
     12 C21        -17.1850    44.9340   -17.4720 ca         1 1SK      -0.054000
     13 C22        -19.6880    43.4820   -19.1720 c3         1 1SK       0.155800
     14 C24        -21.2370    41.5140   -19.4820 cy         1 1SK       0.147300
     15 C26        -22.1240    43.3970   -19.6320 cy         1 1SK       0.147300
     16 F31        -13.0820    44.0260   -20.0720 f          1 1SK      -0.108333
     17 F29        -14.6140    43.1030   -21.2600 f          1 1SK      -0.108333
     18 F30        -14.2480    45.2090   -21.4400 f          1 1SK      -0.108333
     19 C18        -15.3170    44.4680   -19.4750 ca         1 1SK      -0.193300
     20 C19        -15.1660    45.5460   -18.6050 ca         1 1SK       0.164000
     21 CL28       -13.8250    46.6300   -18.7370 cl         1 1SK      -0.167000
     22 C16        -17.3640    43.8590   -18.3320 ca         1 1SK      -0.102300
     23 N23        -20.9560    42.8490   -18.9360 nq         1 1SK      -0.719600
     24 C25        -22.6720    41.9710   -19.7800 cy         1 1SK      -0.103400
     25 N14        -18.3280    41.5950   -18.4610 nu         1 1SK      -0.917100
     26 C9         -17.7760    37.4250   -19.2320 ca         1 1SK      -0.135000
     27 C11        -16.2530    36.2400   -15.9950 c          1 1SK       0.616700
     28 N13        -15.8680    36.7420   -14.8200 nt         1 1SK      -0.597000
     29 O12        -16.1340    35.0550   -16.2840 o          1 1SK      -0.634100
     30 C2         -16.9980    40.4380   -15.4550 ca         1 1SK       0.193900
     31 H1         -17.0470    35.6020   -18.3790 ha         1 1SK       0.148000
     32 H2         -18.4370    39.3380   -19.8430 ha         1 1SK       0.104000
     33 H3         -18.9870    43.0880   -17.1970 h1         1 1SK       0.105700
     34 H4         -16.5470    42.7960   -19.9960 ha         1 1SK       0.129000
     35 H5         -15.9640    46.6100   -16.9270 ha         1 1SK       0.139000
     36 H6         -17.9060    45.1200   -16.6860 ha         1 1SK       0.129000
     37 H7         -19.3400    43.3650   -20.2140 h1         1 1SK       0.042700
     38 H8         -19.8110    44.5550   -19.0060 h1         1 1SK       0.042700
     39 H9         -21.0960    40.6830   -18.7880 h1         1 1SK       0.046450
     40 H10        -20.6800    41.2960   -20.4050 h1         1 1SK       0.046450
     41 H11        -21.8770    43.8420   -20.6060 h1         1 1SK       0.046450
     42 H12        -22.7080    44.1210   -19.0590 h1         1 1SK       0.046450
     43 H14        -23.3750    41.7010   -18.9940 hc         1 1SK       0.063200
     44 H15        -23.0890    41.6980   -20.7470 hc         1 1SK       0.063200
     45 H16        -18.4570    41.2600   -19.4020 hn         1 1SK       0.496000
     46 H17        -18.0510    36.9590   -20.1680 ha         1 1SK       0.123000
     47 H18        -15.4740    36.1270   -14.1270 hn         1 1SK       0.335500
     48 H19        -16.0100    37.7260   -14.6210 hn         1 1SK       0.335500
     49 H20        -16.7550    40.8800   -14.4950 h5         1 1SK       0.045100
     50 C27        -14.3150    44.2010   -20.5620 c3         1 1SK       0.364300
@<TRIPOS>BOND
     1     1     3 ar  
     2     1    30 ar  
     3     2     5 ar  
     4     2    30 ar  
     5     3     4 ar  
     6     3    25 1   
     7     4     5 ar  
     8     4     8 ar  
     9     5     6 ar  
    10     6     7 ar  
    11     6    27 1   
    12     7    26 ar  
    13     7    31 1   
    14     8    26 ar  
    15     8    32 1   
    16     9    13 1   
    17     9    22 1   
    18     9    25 1   
    19     9    33 1   
    20    10    19 ar  
    21    10    22 ar  
    22    10    34 1   
    23    11    12 ar  
    24    11    20 ar  
    25    11    35 1   
    26    12    22 ar  
    27    12    36 1   
    28    13    23 1   
    29    13    37 1   
    30    13    38 1   
    31    14    23 1   
    32    14    24 1   
    33    14    39 1   
    34    14    40 1   
    35    15    23 1   
    36    15    24 1   
    37    15    41 1   
    38    15    42 1   
    39    16    50 1   
    40    17    50 1   
    41    18    50 1   
    42    19    20 ar  
    43    19    50 1   
    44    20    21 1   
    45    24    43 1   
    46    24    44 1   
    47    25    45 1   
    48    26    46 1   
    49    27    28 1   
    50    27    29 2   
    51    28    47 1   
    52    28    48 1   
    53    30    49 1   
@<TRIPOS>SUBSTRUCTURE
     1 1SK         1 TEMP              0 ****  ****    0 ROOT
