@<TRIPOS>MOLECULE
1SL
   57    58     1     0     0
SMALL
No Charge or Current Charge


@<TRIPOS>ATOM
      1 CAA          4.8340     0.7680     2.4860 c3         1 1SL      -0.086100
      2 CAK          5.2450    -0.4300     1.6040 c3         1 1SL      -0.085400
      3 CAX          4.5280    -0.4810     0.2320 c3         1 1SL       0.178300
      4 CAL          5.0210    -1.6700    -0.6360 c3         1 1SL      -0.085400
      5 CAB          4.4170    -1.7590    -2.0530 c3         1 1SL      -0.086100
      6 OAS          3.1180    -0.6490     0.4920 os         1 1SL      -0.457000
      7 CAZ          2.1740     0.0860    -0.3260 c6         1 1SL       0.157300
      8 CBA          0.7500    -0.5190    -0.1920 c6         1 1SL       0.095700
      9 NAR          0.7580    -1.9810    -0.4230 ns         1 1SL      -0.493900
     10 CAT          0.7760    -2.9450     0.5570 c          1 1SL       0.614100
     11 CAC          0.9090    -4.3720     0.0390 c3         1 1SL      -0.179100
     12 OAD          0.6750    -2.6840     1.7470 o          1 1SL      -0.607100
     13 CAO          2.1550     1.5860     0.0670 c6         1 1SL      -0.072200
     14 CAV          1.0090     2.3780    -0.5960 ce         1 1SL      -0.125400
     15 CAU          1.1220     3.8960    -0.6000 c          1 1SL       0.707200
     16 OAG          2.0910     4.4200    -0.0670 o          1 1SL      -0.711000
     17 OAE          0.2330     4.5480    -1.1300 o          1 1SL      -0.711000
     18 CAH         -0.0510     1.7210    -1.1440 c2         1 1SL      -0.309200
     19 CAY         -0.2030     0.2000    -1.1860 c6         1 1SL       0.117500
     20 NBB         -1.6040    -0.2200    -0.9530 na         1 1SL       0.148800
     21 CAI         -2.3490     0.0610     0.1670 cc         1 1SL      -0.177000
     22 NAQ         -2.3250    -0.9590    -1.8480 nc         1 1SL      -0.227800
     23 NAP         -3.5030    -1.1520    -1.3190 nd         1 1SL      -0.380000
     24 CAW         -3.5480    -0.5380    -0.0860 cd         1 1SL       0.176300
     25 CAN         -4.7710    -0.5730     0.7930 c3         1 1SL      -0.079700
     26 CAM         -5.8480     0.4450     0.3540 c3         1 1SL      -0.080400
     27 CAJ         -7.0990     0.4240     1.2540 c3         1 1SL       0.160600
     28 OAF         -8.0460     1.3890     0.7880 oh         1 1SL      -0.661000
     29 H1           3.7750     0.7060     2.7630 hc         1 1SL       0.034367
     30 H2           5.4250     0.7820     3.4090 hc         1 1SL       0.034367
     31 H3           5.0010     1.7150     1.9580 hc         1 1SL       0.034367
     32 H4           6.3280    -0.3790     1.4340 hc         1 1SL       0.035950
     33 H5           5.0560    -1.3610     2.1510 hc         1 1SL       0.035950
     34 H6           4.7320     0.4570    -0.3000 h1         1 1SL       0.041700
     35 H7           6.1110    -1.5930    -0.7380 hc         1 1SL       0.035950
     36 H8           4.8260    -2.6110    -0.1070 hc         1 1SL       0.035950
     37 H9           3.3520    -2.0150    -2.0120 hc         1 1SL       0.034367
     38 H10          4.5330    -0.8080    -2.5870 hc         1 1SL       0.034367
     39 H11          4.9250    -2.5400    -2.6330 hc         1 1SL       0.034367
     40 H12          2.4790     0.0060    -1.3790 h1         1 1SL       0.026700
     41 H13          0.3980    -0.3240     0.8320 h1         1 1SL       0.101700
     42 H14          0.8410    -2.3160    -1.3750 hn         1 1SL       0.306500
     43 H15          1.8150    -4.4440    -0.5740 hc         1 1SL       0.052700
     44 H16          0.9040    -5.1160     0.8430 hc         1 1SL       0.052700
     45 H17          0.1160    -4.5620    -0.6940 hc         1 1SL       0.052700
     46 H18          2.0620     1.6760     1.1580 hc         1 1SL       0.071700
     47 H19          3.1190     2.0390    -0.1990 hc         1 1SL       0.071700
     48 H22         -0.8630     2.2810    -1.6140 ha         1 1SL       0.214000
     49 H24          0.0710    -0.1240    -2.2000 h1         1 1SL       0.073700
     50 H25         -1.9870     0.6370     1.0070 h4         1 1SL       0.180000
     51 H26         -5.2030    -1.5810     0.7870 hc         1 1SL       0.041200
     52 H27         -4.4840    -0.3650     1.8310 hc         1 1SL       0.041200
     53 H28         -5.4150     1.4520     0.3620 hc         1 1SL       0.063700
     54 H29         -6.1460     0.2310    -0.6800 hc         1 1SL       0.063700
     55 H30         -7.5420    -0.5800     1.2380 h1         1 1SL       0.010700
     56 H31         -6.8060     0.6500     2.2880 h1         1 1SL       0.010700
     57 H32         -8.8220     1.3400     1.3890 ho         1 1SL       0.432000
@<TRIPOS>BOND
     1     1     2 1   
     2     1    29 1   
     3     1    30 1   
     4     1    31 1   
     5     2     3 1   
     6     2    32 1   
     7     2    33 1   
     8     3     4 1   
     9     3     6 1   
    10     3    34 1   
    11     4     5 1   
    12     4    35 1   
    13     4    36 1   
    14     5    37 1   
    15     5    38 1   
    16     5    39 1   
    17     6     7 1   
    18     7     8 1   
    19     7    13 1   
    20     7    40 1   
    21     8     9 1   
    22     8    19 1   
    23     8    41 1   
    24     9    10 1   
    25     9    42 1   
    26    10    11 1   
    27    10    12 2   
    28    11    43 1   
    29    11    44 1   
    30    11    45 1   
    31    13    14 1   
    32    13    46 1   
    33    13    47 1   
    34    14    15 1   
    35    14    18 2   
    36    15    16 1   
    37    15    17 1   
    38    18    19 1   
    39    18    48 1   
    40    19    20 1   
    41    19    49 1   
    42    20    21 1   
    43    20    22 1   
    44    21    24 2   
    45    21    50 1   
    46    22    23 2   
    47    23    24 1   
    48    24    25 1   
    49    25    26 1   
    50    25    51 1   
    51    25    52 1   
    52    26    27 1   
    53    26    53 1   
    54    26    54 1   
    55    27    28 1   
    56    27    55 1   
    57    27    56 1   
    58    28    57 1   
@<TRIPOS>SUBSTRUCTURE
     1 1SL         1 TEMP              0 ****  ****    0 ROOT
