@<TRIPOS>MOLECULE
1SL
   57    58     1     0     0
SMALL
bcc


@<TRIPOS>ATOM
      1 CAA          5.0820     0.7690     2.1640 c3         1 1SL      -0.086100
      2 CAK          5.3510    -0.4740     1.3300 c3         1 1SL      -0.085400
      3 CAX          4.4770    -0.6090     0.0890 c3         1 1SL       0.155100
      4 CAL          4.8470    -1.8650    -0.6970 c3         1 1SL      -0.085400
      5 CAB          4.1290    -2.0370    -2.0270 c3         1 1SL      -0.086100
      6 OAS          3.1120    -0.6460     0.4850 os         1 1SL      -0.410600
      7 CAZ          2.2280     0.1740    -0.2310 c6         1 1SL       0.134100
      8 CBA          0.8180    -0.4020    -0.0770 c6         1 1SL       0.095700
      9 NAR          0.7470    -1.8010    -0.3970 ns         1 1SL      -0.560900
     10 CAT          0.7300    -2.7910     0.5170 c          1 1SL       0.681100
     11 CAC          0.7790    -4.1850    -0.0570 c3         1 1SL      -0.179100
     12 OAD          0.6730    -2.5930     1.7210 o          1 1SL      -0.607100
     13 CAO          2.2440     1.6180     0.2600 c6         1 1SL      -0.072200
     14 CAV          1.1290     2.4340    -0.3250 ce         1 1SL      -0.125400
     15 CAU          1.2320     3.9550    -0.2510 c          1 1SL       0.917800
     16 OAG          2.2390     4.4030     0.3310 o          1 1SL      -0.816300
     17 OAE          0.3100     4.6170    -0.7640 o          1 1SL      -0.816300
     18 CAH          0.0610     1.8640    -0.8780 c2         1 1SL      -0.259200
     19 CAY         -0.1320     0.3830    -0.9860 c6         1 1SL       0.088200
     20 NBB         -1.5110     0.0230    -0.7040 na         1 1SL       0.127400
     21 CAI         -2.2870     0.4190     0.3220 cc         1 1SL      -0.209600
     22 NAQ         -2.1470    -0.8500    -1.4630 nc         1 1SL      -0.227800
     23 NAP         -3.3190    -1.0330    -0.9620 nd         1 1SL      -0.380000
     24 CAW         -3.4590    -0.2700     0.1470 cd         1 1SL       0.241600
     25 CAN         -4.7070    -0.2400     0.9600 c3         1 1SL      -0.079700
     26 CAM         -5.9440     0.1210     0.1380 c3         1 1SL      -0.080400
     27 CAJ         -7.1930     0.1360     0.9980 c3         1 1SL       0.137400
     28 OAF         -8.3030     0.4580     0.1880 oh         1 1SL      -0.598800
     29 H1           4.0810     0.7540     2.5930 hc         1 1SL       0.034367
     30 H2           5.7930     0.8430     2.9870 hc         1 1SL       0.034367
     31 H3           5.1730     1.6790     1.5670 hc         1 1SL       0.034367
     32 H4           6.3940    -0.4740     1.0010 hc         1 1SL       0.035950
     33 H5           5.2310    -1.3690     1.9510 hc         1 1SL       0.035950
     34 H6           4.6510     0.2670    -0.5540 h1         1 1SL       0.041700
     35 H7           5.9250    -1.8340    -0.8790 hc         1 1SL       0.035950
     36 H8           4.6710    -2.7400    -0.0630 hc         1 1SL       0.035950
     37 H9           3.0590    -2.1930    -1.8970 hc         1 1SL       0.034367
     38 H10          4.2650    -1.1670    -2.6720 hc         1 1SL       0.034367
     39 H11          4.5160    -2.9050    -2.5620 hc         1 1SL       0.034367
     40 H12          2.4800     0.1670    -1.3030 h1         1 1SL       0.026700
     41 H13          0.5020    -0.2800     0.9630 h1         1 1SL       0.101700
     42 H14          0.8090    -2.0570    -1.3690 hn         1 1SL       0.306500
     43 H15          1.7010    -4.6710     0.2640 hc         1 1SL       0.052700
     44 H16         -0.0510    -4.7710     0.3370 hc         1 1SL       0.052700
     45 H17          0.7390    -4.2170    -1.1450 hc         1 1SL       0.052700
     46 H18          2.1770     1.6310     1.3530 hc         1 1SL       0.071700
     47 H19          3.2010     2.0830     0.0150 hc         1 1SL       0.071700
     48 H22         -0.7170     2.4830    -1.3090 ha         1 1SL       0.164000
     49 H24          0.0290     0.0730    -2.0250 h1         1 1SL       0.073700
     50 H25         -1.9680     1.1310     1.0660 h4         1 1SL       0.198000
     51 H26         -4.8590    -1.2160     1.4300 hc         1 1SL       0.041200
     52 H27         -4.5800     0.4760     1.7750 hc         1 1SL       0.041200
     53 H28         -5.8040     1.1030    -0.3230 hc         1 1SL       0.063700
     54 H29         -6.0660    -0.6010    -0.6730 hc         1 1SL       0.063700
     55 H30         -7.3160    -0.8470     1.4730 h1         1 1SL       0.010700
     56 H31         -7.0640     0.8640     1.8100 h1         1 1SL       0.010700
     57 H32         -9.0890     0.4520     0.7400 ho         1 1SL       0.393000
@<TRIPOS>BOND
     1     1     2 1   
     2     1    29 1   
     3     1    30 1   
     4     1    31 1   
     5     2     3 1   
     6     2    32 1   
     7     2    33 1   
     8     3     4 1   
     9     3     6 1   
    10     3    34 1   
    11     4     5 1   
    12     4    35 1   
    13     4    36 1   
    14     5    37 1   
    15     5    38 1   
    16     5    39 1   
    17     6     7 1   
    18     7     8 1   
    19     7    13 1   
    20     7    40 1   
    21     8     9 1   
    22     8    19 1   
    23     8    41 1   
    24     9    10 1   
    25     9    42 1   
    26    10    11 1   
    27    10    12 2   
    28    11    43 1   
    29    11    44 1   
    30    11    45 1   
    31    13    14 1   
    32    13    46 1   
    33    13    47 1   
    34    14    15 1   
    35    14    18 2   
    36    15    16 1   
    37    15    17 1   
    38    18    19 1   
    39    18    48 1   
    40    19    20 1   
    41    19    49 1   
    42    20    21 1   
    43    20    22 1   
    44    21    24 2   
    45    21    50 1   
    46    22    23 2   
    47    23    24 1   
    48    24    25 1   
    49    25    26 1   
    50    25    51 1   
    51    25    52 1   
    52    26    27 1   
    53    26    53 1   
    54    26    54 1   
    55    27    28 1   
    56    27    55 1   
    57    27    56 1   
    58    28    57 1   
@<TRIPOS>SUBSTRUCTURE
     1 1SL         1 TEMP              0 ****  ****    0 ROOT
