@<TRIPOS>MOLECULE
1SM
   41    42     1     0     0
SMALL
No Charge or Current Charge


@<TRIPOS>ATOM
      1 C4          -3.0210    -0.5100    -2.9790 ca         1 1SM      -0.109000
      2 C5          -2.4560    -1.7260    -3.3860 ca         1 1SM      -0.064000
      3 C6          -1.0690    -1.9180    -3.2980 ca         1 1SM      -0.091000
      4 C1          -0.2210    -0.9010    -2.8030 ca         1 1SM      -0.040600
      5 C2          -0.7990     0.3460    -2.4100 ca         1 1SM      -0.249500
      6 C3          -2.2000     0.5210    -2.4960 ca         1 1SM       0.001000
      7 S7           0.2060     1.7440    -1.8340 sy         1 1SM       1.192300
      8 N8           0.7260     1.3070    -0.3110 ns         1 1SM      -0.588300
      9 C9          -0.0500     1.0030     0.7510 c          1 1SM       0.694100
     10 N10          0.6890     0.5280     1.8080 ns         1 1SM      -0.317900
     11 C15          0.2750     0.0910     3.0800 ca         1 1SM       0.274900
     12 N1          -0.9520    -0.4580     3.1930 nb         1 1SM      -0.217500
     13 C14         -1.3040    -0.8750     4.4250 ca         1 1SM       0.164300
     14 C12         -0.4260    -0.7450     5.5170 ca         1 1SM      -0.256000
     15 C10          0.8340    -0.1650     5.2830 ca         1 1SM       0.164300
     16 N3           1.1900     0.2580     4.0540 nb         1 1SM      -0.217500
     17 O7A          1.4230     1.8200    -2.6480 o          1 1SM      -0.522500
     18 O7B         -0.6600     2.9150    -1.6580 o          1 1SM      -0.522500
     19 O9          -1.2610     1.1460     0.7640 o          1 1SM      -0.550100
     20 C11          1.2610    -1.2090    -2.7040 c          1 1SM       0.614700
     21 O12          1.7570    -1.8060    -3.8360 os         1 1SM      -0.417100
     22 C13          3.1520    -2.1600    -3.8600 c3         1 1SM       0.149900
     23 O11          1.9340    -0.9910    -1.7040 o          1 1SM      -0.501000
     24 C8           1.8460     0.0180     6.3980 c3         1 1SM      -0.151900
     25 C7          -2.6800    -1.4950     4.5790 c3         1 1SM      -0.151900
     26 H4          -4.0970    -0.3630    -3.0430 ha         1 1SM       0.126000
     27 H5          -3.0930    -2.5230    -3.7630 ha         1 1SM       0.122000
     28 H6          -0.6500    -2.8740    -3.6050 ha         1 1SM       0.127000
     29 H3          -2.6660     1.4580    -2.1940 ha         1 1SM       0.157000
     30 HN8          1.7020     1.0700    -0.3100 hn         1 1SM       0.355500
     31 H10          1.6890     0.5200     1.6720 hn         1 1SM       0.178000
     32 H2          -0.7120    -1.0850     6.5090 ha         1 1SM       0.135000
     33 H131         3.4120    -2.6240    -4.8200 h1         1 1SM       0.054033
     34 H132         3.7840    -1.2720    -3.7290 h1         1 1SM       0.054033
     35 H133         3.3890    -2.8760    -3.0620 h1         1 1SM       0.054033
     36 H8'1         1.8060     1.0390     6.7940 hc         1 1SM       0.058533
     37 H8'2         1.6530    -0.6720     7.2280 hc         1 1SM       0.058533
     38 H8'3         2.8670    -0.1680     6.0440 hc         1 1SM       0.058533
     39 H7'1        -3.4150    -1.0040     3.9300 hc         1 1SM       0.058533
     40 H7'2        -2.6570    -2.5590     4.3170 hc         1 1SM       0.058533
     41 H7'3        -3.0420    -1.4110     5.6100 hc         1 1SM       0.058533
@<TRIPOS>BOND
     1     1     2 ar  
     2     1     6 ar  
     3     1    26 1   
     4     2     3 ar  
     5     2    27 1   
     6     3     4 ar  
     7     3    28 1   
     8     4     5 ar  
     9     4    20 1   
    10     5     6 ar  
    11     5     7 1   
    12     6    29 1   
    13     7     8 1   
    14     7    17 2   
    15     7    18 2   
    16     8     9 1   
    17     8    30 1   
    18     9    10 1   
    19     9    19 2   
    20    10    11 1   
    21    10    31 1   
    22    11    12 ar  
    23    11    16 ar  
    24    12    13 ar  
    25    13    14 ar  
    26    13    25 1   
    27    14    15 ar  
    28    14    32 1   
    29    15    16 ar  
    30    15    24 1   
    31    20    21 1   
    32    20    23 2   
    33    21    22 1   
    34    22    33 1   
    35    22    34 1   
    36    22    35 1   
    37    24    36 1   
    38    24    37 1   
    39    24    38 1   
    40    25    39 1   
    41    25    40 1   
    42    25    41 1   
@<TRIPOS>SUBSTRUCTURE
     1 1SM         1 TEMP              0 ****  ****    0 ROOT
