@<TRIPOS>MOLECULE
1SM
   41    42     1     0     0
SMALL
abcg2


@<TRIPOS>ATOM
      1 C4          -2.9020    -0.9030    -2.8020 ca         1 1SM      -0.109000
      2 C5          -2.2430    -2.0050    -3.3190 ca         1 1SM      -0.064000
      3 C6          -0.8550    -2.0390    -3.3480 ca         1 1SM      -0.091000
      4 C1          -0.1090    -0.9810    -2.8440 ca         1 1SM      -0.040600
      5 C2          -0.7880     0.1260    -2.3280 ca         1 1SM      -0.249500
      6 C3          -2.1740     0.1730    -2.3150 ca         1 1SM       0.001000
      7 S7           0.0840     1.5840    -1.8090 sy         1 1SM       1.192300
      8 N8           0.7050     1.2430    -0.3000 ns         1 1SM      -0.588300
      9 C9          -0.1130     0.9290     0.7800 c          1 1SM       0.694100
     10 N10          0.6250     0.6200     1.8870 ns         1 1SM      -0.317900
     11 C15          0.1770     0.1810     3.1250 ca         1 1SM       0.274900
     12 N1          -1.1030    -0.0670     3.3100 nb         1 1SM      -0.217500
     13 C14         -1.4550    -0.4940     4.5220 ca         1 1SM       0.164300
     14 C12         -0.5130    -0.6700     5.5240 ca         1 1SM      -0.256000
     15 C10          0.8130    -0.3840     5.2210 ca         1 1SM       0.164300
     16 N3           1.1560     0.0470     4.0110 nb         1 1SM      -0.217500
     17 O7A          1.2480     1.7540    -2.6560 o          1 1SM      -0.522500
     18 O7B         -0.8720     2.6620    -1.6780 o          1 1SM      -0.522500
     19 O9          -1.3150     0.9490     0.6950 o          1 1SM      -0.550100
     20 C11          1.3770    -1.1280    -2.7960 c          1 1SM       0.614700
     21 O12          1.8590    -1.5110    -3.9590 os         1 1SM      -0.417100
     22 C13          3.2640    -1.7740    -4.0370 c3         1 1SM       0.149900
     23 O11          2.0330    -0.9700    -1.7980 o          1 1SM      -0.501000
     24 C8           1.9040    -0.5310     6.2290 c3         1 1SM      -0.151900
     25 C7          -2.9050    -0.7790     4.7410 c3         1 1SM      -0.151900
     26 H4          -3.9820    -0.8680    -2.7830 ha         1 1SM       0.126000
     27 H5          -2.8040    -2.8440    -3.7070 ha         1 1SM       0.122000
     28 H6          -0.3540    -2.9070    -3.7530 ha         1 1SM       0.127000
     29 H3          -2.6900     1.0420    -1.9360 ha         1 1SM       0.157000
     30 HN8          1.6840     0.9820    -0.3000 hn         1 1SM       0.355500
     31 H10          1.6260     0.7430     1.8470 hn         1 1SM       0.178000
     32 H2          -0.7990    -1.0180     6.5060 ha         1 1SM       0.135000
     33 H131         3.4530    -2.0610    -5.0670 h1         1 1SM       0.054033
     34 H132         3.8450    -0.8850    -3.7930 h1         1 1SM       0.054033
     35 H133         3.5500    -2.5880    -3.3730 h1         1 1SM       0.054033
     36 H8'1         2.3020     0.4500     6.4980 hc         1 1SM       0.058533
     37 H8'2         1.5520    -1.0160     7.1360 hc         1 1SM       0.058533
     38 H8'3         2.7300    -1.1120     5.8190 hc         1 1SM       0.058533
     39 H7'1        -3.5060     0.0960     4.4920 hc         1 1SM       0.058533
     40 H7'2        -3.2320    -1.5900     4.0890 hc         1 1SM       0.058533
     41 H7'3        -3.1100    -1.0620     5.7710 hc         1 1SM       0.058533
@<TRIPOS>BOND
     1     1     2 ar  
     2     1     6 ar  
     3     1    26 1   
     4     2     3 ar  
     5     2    27 1   
     6     3     4 ar  
     7     3    28 1   
     8     4     5 ar  
     9     4    20 1   
    10     5     6 ar  
    11     5     7 1   
    12     6    29 1   
    13     7     8 1   
    14     7    17 2   
    15     7    18 2   
    16     8     9 1   
    17     8    30 1   
    18     9    10 1   
    19     9    19 2   
    20    10    11 1   
    21    10    31 1   
    22    11    12 ar  
    23    11    16 ar  
    24    12    13 ar  
    25    13    14 ar  
    26    13    25 1   
    27    14    15 ar  
    28    14    32 1   
    29    15    16 ar  
    30    15    24 1   
    31    20    21 1   
    32    20    23 2   
    33    21    22 1   
    34    22    33 1   
    35    22    34 1   
    36    22    35 1   
    37    24    36 1   
    38    24    37 1   
    39    24    38 1   
    40    25    39 1   
    41    25    40 1   
    42    25    41 1   
@<TRIPOS>SUBSTRUCTURE
     1 1SM         1 TEMP              0 ****  ****    0 ROOT
