@<TRIPOS>MOLECULE
1SN
   57    58     1     0     0
SMALL
abcg2


@<TRIPOS>ATOM
      1 CAB          4.8300     0.4470     2.3440 c3         1 1SN      -0.086100
      2 CAL          5.0430    -0.8020     1.5040 c3         1 1SN      -0.086400
      3 CAX          4.2780    -0.8110     0.1850 c3         1 1SN       0.179300
      4 CAM          4.6030    -2.0670    -0.6200 c3         1 1SN      -0.086400
      5 CAC          4.0280    -2.1080    -2.0290 c3         1 1SN      -0.086100
      6 OAR          2.8910    -0.7440     0.4770 os         1 1SN      -0.460000
      7 CAZ          2.1080     0.1280    -0.2920 c6         1 1SN       0.157300
      8 CBA          0.6610    -0.3550    -0.1900 c6         1 1SN       0.093700
      9 NAQ          0.5210    -1.7510    -0.5060 ns         1 1SN      -0.492900
     10 CAS          0.4080    -2.7280     0.4140 c          1 1SN       0.614100
     11 CAD          0.4600    -4.1300    -0.1400 c3         1 1SN      -0.179100
     12 OAE          0.2710    -2.5150     1.6090 o          1 1SN      -0.603100
     13 CAN          2.2010     1.5730     0.1840 c6         1 1SN      -0.073200
     14 CAU          1.1590     2.4520    -0.4420 ce         1 1SN      -0.123400
     15 CAT          1.3540     3.9650    -0.3750 c          1 1SN       0.707200
     16 OAG          0.4880     4.6790    -0.9160 o          1 1SN      -0.710500
     17 OAF          2.3700     4.3540     0.2320 o          1 1SN      -0.710500
     18 CAI          0.0720     1.9460    -1.0240 c2         1 1SN      -0.311200
     19 CAY         -0.2130     0.4800    -1.1270 c6         1 1SN       0.119500
     20 NBB         -1.6180     0.2100    -0.8670 na         1 1SN       0.149800
     21 CAJ         -2.3730     0.6390     0.1600 cc         1 1SN      -0.157000
     22 NAP         -2.3000    -0.6170    -1.6390 nc         1 1SN      -0.223800
     23 NAO         -3.4850    -0.7300    -1.1500 nd         1 1SN      -0.386000
     24 CAV         -3.5830     0.0270    -0.0330 cd         1 1SN       0.134300
     25 CAW         -4.8320     0.0950     0.7900 c3         1 1SN       0.164000
     26 CAK         -6.0380     0.5040    -0.0530 c3         1 1SN      -0.108400
     27 CAA         -7.3140     0.6520     0.7630 c3         1 1SN      -0.084100
     28 OAH         -5.0490    -1.1180     1.4850 oh         1 1SN      -0.657000
     29 H1           5.1380     1.3460     1.8080 hc         1 1SN       0.033867
     30 H2           3.7840     0.5670     2.6270 hc         1 1SN       0.033867
     31 H3           5.4160     0.3990     3.2630 hc         1 1SN       0.033867
     32 H4           6.1070    -0.9110     1.2780 hc         1 1SN       0.036950
     33 H5           4.7650    -1.6900     2.0810 hc         1 1SN       0.036950
     34 H6           4.5850     0.0710    -0.3970 h1         1 1SN       0.042700
     35 H7           5.6920    -2.1510    -0.6810 hc         1 1SN       0.036950
     36 H8           4.2600    -2.9410    -0.0570 hc         1 1SN       0.036950
     37 H9           4.3380    -1.2400    -2.6140 hc         1 1SN       0.033867
     38 H10          4.3720    -2.9980    -2.5560 hc         1 1SN       0.033867
     39 H11          2.9380    -2.1400    -2.0280 hc         1 1SN       0.033867
     40 H12          2.4060     0.0900    -1.3520 h1         1 1SN       0.026700
     41 H13          0.3210    -0.2120     0.8390 h1         1 1SN       0.103700
     42 H14          0.6590    -2.0220    -1.4670 hn         1 1SN       0.304500
     43 H15          1.3930    -4.6010     0.1760 hc         1 1SN       0.052033
     44 H16         -0.3570    -4.7210     0.2740 hc         1 1SN       0.052033
     45 H17          0.4090    -4.1770    -1.2260 hc         1 1SN       0.052033
     46 H18          2.0990     1.6020     1.2750 hc         1 1SN       0.072200
     47 H19          3.1940     1.9720    -0.0310 hc         1 1SN       0.072200
     48 H22         -0.6520     2.6100    -1.4820 ha         1 1SN       0.213000
     49 H24         -0.0530     0.1510    -2.1600 h1         1 1SN       0.073700
     50 H25         -2.0150     1.3190     0.9150 h4         1 1SN       0.183000
     51 H26         -4.6800     0.8520     1.5650 h1         1 1SN       0.070700
     52 H27         -5.8040     1.4510    -0.5460 hc         1 1SN       0.052200
     53 H28         -6.1830    -0.2270    -0.8540 hc         1 1SN       0.052200
     54 H29         -7.6110    -0.2900     1.2240 hc         1 1SN       0.029033
     55 H30         -7.1890     1.3890     1.5590 hc         1 1SN       0.029033
     56 H31         -8.1390     0.9840     0.1330 hc         1 1SN       0.029033
     57 H32         -5.2440    -1.8030     0.8360 ho         1 1SN       0.444000
@<TRIPOS>BOND
     1     1     2 1   
     2     1    29 1   
     3     1    30 1   
     4     1    31 1   
     5     2     3 1   
     6     2    32 1   
     7     2    33 1   
     8     3     4 1   
     9     3     6 1   
    10     3    34 1   
    11     4     5 1   
    12     4    35 1   
    13     4    36 1   
    14     5    37 1   
    15     5    38 1   
    16     5    39 1   
    17     6     7 1   
    18     7     8 1   
    19     7    13 1   
    20     7    40 1   
    21     8     9 1   
    22     8    19 1   
    23     8    41 1   
    24     9    10 1   
    25     9    42 1   
    26    10    11 1   
    27    10    12 2   
    28    11    43 1   
    29    11    44 1   
    30    11    45 1   
    31    13    14 1   
    32    13    46 1   
    33    13    47 1   
    34    14    15 1   
    35    14    18 2   
    36    15    16 1   
    37    15    17 1   
    38    18    19 1   
    39    18    48 1   
    40    19    20 1   
    41    19    49 1   
    42    20    21 1   
    43    20    22 1   
    44    21    24 2   
    45    21    50 1   
    46    22    23 2   
    47    23    24 1   
    48    24    25 1   
    49    25    26 1   
    50    25    28 1   
    51    25    51 1   
    52    26    27 1   
    53    26    52 1   
    54    26    53 1   
    55    27    54 1   
    56    27    55 1   
    57    27    56 1   
    58    28    57 1   
@<TRIPOS>SUBSTRUCTURE
     1 1SN         1 TEMP              0 ****  ****    0 ROOT
