@<TRIPOS>MOLECULE
1SN
   57    58     1     0     0
SMALL
No Charge or Current Charge


@<TRIPOS>ATOM
      1 CAB          4.7100     0.5410     2.5360 c3         1 1SN      -0.086100
      2 CAL          5.0600    -0.6790     1.6570 c3         1 1SN      -0.086400
      3 CAX          4.3660    -0.6830     0.2730 c3         1 1SN       0.179300
      4 CAM          4.8000    -1.8990    -0.5900 c3         1 1SN      -0.086400
      5 CAC          4.2170    -1.9470    -2.0180 c3         1 1SN      -0.086100
      6 OAR          2.9440    -0.7620     0.5070 os         1 1SN      -0.460000
      7 CAZ          2.0630     0.0320    -0.3260 c6         1 1SN       0.157300
      8 CBA          0.6020    -0.4830    -0.2190 c6         1 1SN       0.093700
      9 NAQ          0.5230    -1.9420    -0.4560 ns         1 1SN      -0.492900
     10 CAS          0.4650    -2.9070     0.5210 c          1 1SN       0.614100
     11 CAD          0.5190    -4.3380     0.0010 c3         1 1SN      -0.179100
     12 OAE          0.3610    -2.6430     1.7110 o          1 1SN      -0.603100
     13 CAN          2.1320     1.5300     0.0720 c6         1 1SN      -0.073200
     14 CAU          1.0500     2.3940    -0.6090 ce         1 1SN      -0.123400
     15 CAT          1.2580     3.9020    -0.6050 c          1 1SN       0.707200
     16 OAG          0.4210     4.6090    -1.1500 o          1 1SN      -0.710500
     17 OAF          2.2470     4.3620    -0.0540 o          1 1SN      -0.710500
     18 CAI         -0.0400     1.8050    -1.1780 c2         1 1SN      -0.311200
     19 CAY         -0.2850     0.2970    -1.2290 c6         1 1SN       0.119500
     20 NBB         -1.7150    -0.0350    -1.0240 na         1 1SN       0.149800
     21 CAJ         -2.4610     0.2930     0.0820 cc         1 1SN      -0.157000
     22 NAP         -2.4620    -0.7270    -1.9340 nc         1 1SN      -0.223800
     23 NAO         -3.6600    -0.8450    -1.4310 nd         1 1SN      -0.386000
     24 CAV         -3.6940    -0.2280    -0.1940 cd         1 1SN       0.134300
     25 CAW         -4.9420    -0.1810     0.6680 c3         1 1SN       0.164000
     26 CAK         -5.9350     0.9030     0.1820 c3         1 1SN      -0.108400
     27 CAA         -7.1390     1.1270     1.1230 c3         1 1SN      -0.084100
     28 OAH         -5.5980    -1.4590     0.6800 oh         1 1SN      -0.657000
     29 H1           4.9460     1.4760     2.0130 hc         1 1SN       0.033867
     30 H2           3.6440     0.5460     2.7930 hc         1 1SN       0.033867
     31 H3           5.2840     0.5150     3.4700 hc         1 1SN       0.033867
     32 H4           6.1470    -0.6970     1.5080 hc         1 1SN       0.036950
     33 H5           4.8020    -1.5980     2.1990 hc         1 1SN       0.036950
     34 H6           4.6390     0.2420    -0.2530 h1         1 1SN       0.042700
     35 H7           5.8930    -1.8910    -0.6710 hc         1 1SN       0.036950
     36 H8           4.5350    -2.8270    -0.0670 hc         1 1SN       0.036950
     37 H9           4.4020    -1.0050    -2.5470 hc         1 1SN       0.033867
     38 H10          4.6850    -2.7570    -2.5900 hc         1 1SN       0.033867
     39 H11          3.1380    -2.1350    -1.9970 hc         1 1SN       0.033867
     40 H12          2.3830    -0.0640    -1.3730 h1         1 1SN       0.026700
     41 H13          0.2450    -0.2680     0.7980 h1         1 1SN       0.103700
     42 H14          0.6010    -2.2790    -1.4070 hn         1 1SN       0.304500
     43 H15          1.4290    -4.4650    -0.5970 hc         1 1SN       0.052033
     44 H16          0.4560    -5.0830     0.8030 hc         1 1SN       0.052033
     45 H17         -0.2710    -4.4780    -0.7450 hc         1 1SN       0.052033
     46 H18          2.0240     1.6230     1.1610 hc         1 1SN       0.072200
     47 H19          3.1260     1.9220    -0.1750 hc         1 1SN       0.072200
     48 H22         -0.8050     2.4170    -1.6610 ha         1 1SN       0.213000
     49 H24         -0.0130    -0.0410    -2.2390 h1         1 1SN       0.073700
     50 H25         -2.0790     0.8450     0.9300 h4         1 1SN       0.183000
     51 H26         -4.6280     0.0830     1.6880 h1         1 1SN       0.070700
     52 H27         -5.3940     1.8530     0.0820 hc         1 1SN       0.052200
     53 H28         -6.3000     0.6450    -0.8200 hc         1 1SN       0.052200
     54 H29         -7.7520     0.2210     1.2020 hc         1 1SN       0.029033
     55 H30         -6.7990     1.4050     2.1280 hc         1 1SN       0.029033
     56 H31         -7.7750     1.9350     0.7410 hc         1 1SN       0.029033
     57 H32         -5.4820    -1.8230    -0.2250 ho         1 1SN       0.444000
@<TRIPOS>BOND
     1     1     2 1   
     2     1    29 1   
     3     1    30 1   
     4     1    31 1   
     5     2     3 1   
     6     2    32 1   
     7     2    33 1   
     8     3     4 1   
     9     3     6 1   
    10     3    34 1   
    11     4     5 1   
    12     4    35 1   
    13     4    36 1   
    14     5    37 1   
    15     5    38 1   
    16     5    39 1   
    17     6     7 1   
    18     7     8 1   
    19     7    13 1   
    20     7    40 1   
    21     8     9 1   
    22     8    19 1   
    23     8    41 1   
    24     9    10 1   
    25     9    42 1   
    26    10    11 1   
    27    10    12 2   
    28    11    43 1   
    29    11    44 1   
    30    11    45 1   
    31    13    14 1   
    32    13    46 1   
    33    13    47 1   
    34    14    15 1   
    35    14    18 2   
    36    15    16 1   
    37    15    17 1   
    38    18    19 1   
    39    18    48 1   
    40    19    20 1   
    41    19    49 1   
    42    20    21 1   
    43    20    22 1   
    44    21    24 2   
    45    21    50 1   
    46    22    23 2   
    47    23    24 1   
    48    24    25 1   
    49    25    26 1   
    50    25    28 1   
    51    25    51 1   
    52    26    27 1   
    53    26    52 1   
    54    26    53 1   
    55    27    54 1   
    56    27    55 1   
    57    27    56 1   
    58    28    57 1   
@<TRIPOS>SUBSTRUCTURE
     1 1SN         1 TEMP              0 ****  ****    0 ROOT
