@<TRIPOS>MOLECULE
1SO
   57    58     1     0     0
SMALL
No Charge or Current Charge


@<TRIPOS>ATOM
      1 CAD        -12.8280   -23.0610    11.8910 c3         1 1SO      -0.093100
      2 CBB        -13.7550   -21.9550    12.4500 c3         1 1SO       0.171700
      3 CAE        -13.4050   -20.5850    11.8250 c3         1 1SO      -0.093100
      4 OAI        -13.4840   -21.8550    13.8570 oh         1 1SO      -0.674000
      5 CAV        -15.2240   -22.2990    12.2080 cc         1 1SO       0.152300
      6 CAK        -16.2190   -22.4330    13.1300 cd         1 1SO      -0.196000
      7 NAO        -15.7160   -22.5320    10.9490 nc         1 1SO      -0.383000
      8 NAP        -16.9890   -22.8210    11.0410 nd         1 1SO      -0.176800
      9 NBA        -17.3160   -22.7670    12.3720 na         1 1SO       0.130800
     10 CAX        -18.6660   -23.0880    12.8930 c6         1 1SO       0.125500
     11 CAZ        -18.8340   -24.6300    13.0500 c6         1 1SO       0.077700
     12 NAQ        -17.9290   -25.1400    14.1110 ns         1 1SO      -0.504900
     13 CAS        -16.6880   -25.7150    13.9550 c          1 1SO       0.605100
     14 OAF        -15.9480   -25.8250    14.9190 o          1 1SO      -0.644100
     15 CAC        -16.3100   -26.2750    12.5850 c3         1 1SO      -0.177100
     16 CAJ        -19.7740   -22.4410    12.0600 c2         1 1SO      -0.284200
     17 CAU        -20.9400   -23.0510    11.7130 ce         1 1SO      -0.121400
     18 CAT        -22.0190   -22.3520    10.9000 c          1 1SO       0.703200
     19 OAH        -21.8380   -21.1900    10.5650 o          1 1SO      -0.711000
     20 OAG        -23.0290   -22.9720    10.6000 o          1 1SO      -0.711000
     21 CAN        -21.2050   -24.5060    12.1400 c6         1 1SO      -0.050200
     22 CAY        -20.3340   -24.9620    13.3330 c6         1 1SO       0.164300
     23 OAR        -20.5540   -26.3810    13.5340 os         1 1SO      -0.467000
     24 CAW        -20.4370   -26.9370    14.8640 c3         1 1SO       0.177300
     25 CAM        -20.2920   -28.4710    14.7070 c3         1 1SO      -0.085400
     26 CAB        -18.9920   -28.8980    13.9920 c3         1 1SO      -0.085600
     27 CAL        -21.6700   -26.5160    15.7140 c3         1 1SO      -0.085400
     28 CAA        -23.0500   -26.8520    15.1020 c3         1 1SO      -0.085600
     29 H1         -13.0770   -24.0360    12.3270 hc         1 1SO       0.044367
     30 H2         -12.9300   -23.1420    10.8020 hc         1 1SO       0.044367
     31 H3         -11.7760   -22.8440    12.1150 hc         1 1SO       0.044367
     32 H4         -12.3620   -20.3140    12.0300 hc         1 1SO       0.044367
     33 H5         -13.5430   -20.6050    10.7380 hc         1 1SO       0.044367
     34 H6         -14.0490   -19.7970    12.2340 hc         1 1SO       0.044367
     35 H7         -13.6500   -22.7420    14.2430 ho         1 1SO       0.443000
     36 H8         -16.2290   -22.3330    14.2070 h4         1 1SO       0.165000
     37 H9         -18.7340   -22.6490    13.8990 h1         1 1SO       0.052700
     38 H10        -18.5820   -25.1020    12.0910 h1         1 1SO       0.094700
     39 H11        -18.1470   -24.8820    15.0650 hn         1 1SO       0.300500
     40 H12        -15.3610   -26.8210    12.6050 hc         1 1SO       0.065367
     41 H13        -17.1280   -26.8990    12.2080 hc         1 1SO       0.065367
     42 H14        -16.2750   -25.4580    11.8580 hc         1 1SO       0.065367
     43 H15        -19.5820   -21.4090    11.7570 ha         1 1SO       0.219000
     44 H18        -22.2590   -24.6350    12.4170 hc         1 1SO       0.076200
     45 H19        -20.6590   -24.4100    14.2260 h1         1 1SO       0.031700
     46 H20        -19.5380   -26.5710    15.3730 h1         1 1SO       0.024700
     47 H21        -21.1490   -28.8710    14.1520 hc         1 1SO       0.040200
     48 H22        -20.3120   -28.9340    15.7010 hc         1 1SO       0.040200
     49 H23        -18.9230   -29.9910    13.9480 hc         1 1SO       0.035700
     50 H24        -18.9660   -28.5130    12.9660 hc         1 1SO       0.035700
     51 H25        -18.1130   -28.5200    14.5280 hc         1 1SO       0.035700
     52 H26        -21.6250   -25.4400    15.9150 hc         1 1SO       0.040200
     53 H27        -21.5980   -27.0010    16.6950 hc         1 1SO       0.040200
     54 H28        -23.8520   -26.4980    15.7610 hc         1 1SO       0.035700
     55 H29        -23.1770   -26.3690    14.1260 hc         1 1SO       0.035700
     56 H30        -23.1730   -27.9330    14.9730 hc         1 1SO       0.035700
     57 H16        -21.0280   -25.1680    11.2820 hc         1 1SO       0.076200
@<TRIPOS>BOND
     1     1     2 1   
     2     1    29 1   
     3     1    30 1   
     4     1    31 1   
     5     2     3 1   
     6     2     4 1   
     7     2     5 1   
     8     3    32 1   
     9     3    33 1   
    10     3    34 1   
    11     4    35 1   
    12     5     6 2   
    13     5     7 1   
    14     6     9 1   
    15     6    36 1   
    16     7     8 2   
    17     8     9 1   
    18     9    10 1   
    19    10    11 1   
    20    10    16 1   
    21    10    37 1   
    22    11    12 1   
    23    11    22 1   
    24    11    38 1   
    25    12    13 1   
    26    12    39 1   
    27    13    14 2   
    28    13    15 1   
    29    15    40 1   
    30    15    41 1   
    31    15    42 1   
    32    16    17 2   
    33    16    43 1   
    34    17    18 1   
    35    17    21 1   
    36    18    19 1   
    37    18    20 1   
    38    21    22 1   
    39    21    44 1   
    40    21    57 1   
    41    22    23 1   
    42    22    45 1   
    43    23    24 1   
    44    24    25 1   
    45    24    27 1   
    46    24    46 1   
    47    25    26 1   
    48    25    47 1   
    49    25    48 1   
    50    26    49 1   
    51    26    50 1   
    52    26    51 1   
    53    27    28 1   
    54    27    52 1   
    55    27    53 1   
    56    28    54 1   
    57    28    55 1   
    58    28    56 1   
@<TRIPOS>SUBSTRUCTURE
     1 1SO         1 TEMP              0 ****  ****    0 ROOT
