@<TRIPOS>MOLECULE
1SO
   57    58     1     0     0
SMALL
abcg2


@<TRIPOS>ATOM
      1 CAD        -12.9250   -23.1550    11.6110 c3         1 1SO      -0.093100
      2 CBB        -13.7360   -22.0740    12.3270 c3         1 1SO       0.171700
      3 CAE        -13.3830   -20.6830    11.8090 c3         1 1SO      -0.093100
      4 OAI        -13.4120   -22.0650    13.7280 oh         1 1SO      -0.674000
      5 CAV        -15.2140   -22.3360    12.1710 cc         1 1SO       0.152300
      6 CAK        -16.1830   -22.4390    13.1420 cd         1 1SO      -0.196000
      7 NAO        -15.8160   -22.5210    10.9660 nc         1 1SO      -0.383000
      8 NAP        -17.0940   -22.7380    11.1470 nd         1 1SO      -0.176800
      9 NBA        -17.3260   -22.6840    12.4640 na         1 1SO       0.130800
     10 CAX        -18.6360   -23.0290    13.0210 c6         1 1SO       0.125500
     11 CAZ        -18.7680   -24.5620    13.1090 c6         1 1SO       0.077700
     12 NAQ        -17.8110   -25.0960    14.0550 ns         1 1SO      -0.504900
     13 CAS        -16.6890   -25.8050    13.8010 c          1 1SO       0.605100
     14 OAF        -15.9280   -26.1260    14.7180 o          1 1SO      -0.644100
     15 CAC        -16.4020   -26.1950    12.3710 c3         1 1SO      -0.177100
     16 CAJ        -19.7490   -22.3920    12.2460 c2         1 1SO      -0.284200
     17 CAU        -20.9040   -23.0000    11.9800 ce         1 1SO      -0.121400
     18 CAT        -21.9900   -22.2750    11.1820 c          1 1SO       0.703200
     19 OAH        -21.7970   -21.0690    10.8860 o          1 1SO      -0.711000
     20 OAG        -22.9990   -22.9610    10.8750 o          1 1SO      -0.711000
     21 CAN        -21.1770   -24.4120    12.4170 c6         1 1SO      -0.050200
     22 CAY        -20.2110   -24.9250    13.4780 c6         1 1SO       0.164300
     23 OAR        -20.3440   -26.3350    13.5790 os         1 1SO      -0.467000
     24 CAW        -20.5810   -26.8580    14.8970 c3         1 1SO       0.177300
     25 CAM        -20.2390   -28.3410    14.8610 c3         1 1SO      -0.085400
     26 CAB        -18.7590   -28.6230    14.6210 c3         1 1SO      -0.085600
     27 CAL        -22.0140   -26.5740    15.3580 c3         1 1SO      -0.085400
     28 CAA        -23.1060   -27.2080    14.5000 c3         1 1SO      -0.085600
     29 H1         -13.1490   -24.1370    12.0310 hc         1 1SO       0.044367
     30 H2         -13.1660   -23.1750    10.5480 hc         1 1SO       0.044367
     31 H3         -11.8590   -22.9520    11.7300 hc         1 1SO       0.044367
     32 H4         -12.3140   -20.5040    11.9260 hc         1 1SO       0.044367
     33 H5         -13.6420   -20.5980    10.7530 hc         1 1SO       0.044367
     34 H6         -13.9340   -19.9230    12.3650 hc         1 1SO       0.044367
     35 H7         -13.5100   -22.9640    14.0690 ho         1 1SO       0.443000
     36 H8         -16.1530   -22.3680    14.2140 h4         1 1SO       0.165000
     37 H9         -18.6230   -22.6230    14.0370 h1         1 1SO       0.052700
     38 H10        -18.5580   -24.9810    12.1270 h1         1 1SO       0.094700
     39 H11        -17.9440   -24.8520    15.0280 hn         1 1SO       0.300500
     40 H12        -15.5160   -26.8230    12.3600 hc         1 1SO       0.065367
     41 H13        -17.2400   -26.7410    11.9350 hc         1 1SO       0.065367
     42 H14        -16.2230   -25.3140    11.7530 hc         1 1SO       0.065367
     43 H15        -19.5950   -21.3720    11.9170 ha         1 1SO       0.219000
     44 H18        -22.1980   -24.4920    12.7910 hc         1 1SO       0.076200
     45 H19        -20.4440   -24.4570    14.4410 h1         1 1SO       0.031700
     46 H20        -19.8950   -26.3610    15.5940 h1         1 1SO       0.024700
     47 H21        -20.8400   -28.8250    14.0860 hc         1 1SO       0.040200
     48 H22        -20.5500   -28.7760    15.8150 hc         1 1SO       0.040200
     49 H23        -18.5590   -29.6970    14.6490 hc         1 1SO       0.035700
     50 H24        -18.4390   -28.2470    13.6490 hc         1 1SO       0.035700
     51 H25        -18.1400   -28.1450    15.3830 hc         1 1SO       0.035700
     52 H26        -22.1600   -25.4910    15.3890 hc         1 1SO       0.040200
     53 H27        -22.1020   -26.9200    16.3930 hc         1 1SO       0.040200
     54 H28        -24.0930   -26.8930    14.8450 hc         1 1SO       0.035700
     55 H29        -23.0060   -26.9080    13.4560 hc         1 1SO       0.035700
     56 H30        -23.0730   -28.2980    14.5430 hc         1 1SO       0.035700
     57 H16        -21.1230   -25.0800    11.5510 hc         1 1SO       0.076200
@<TRIPOS>BOND
     1     1     2 1   
     2     1    29 1   
     3     1    30 1   
     4     1    31 1   
     5     2     3 1   
     6     2     4 1   
     7     2     5 1   
     8     3    32 1   
     9     3    33 1   
    10     3    34 1   
    11     4    35 1   
    12     5     6 2   
    13     5     7 1   
    14     6     9 1   
    15     6    36 1   
    16     7     8 2   
    17     8     9 1   
    18     9    10 1   
    19    10    11 1   
    20    10    16 1   
    21    10    37 1   
    22    11    12 1   
    23    11    22 1   
    24    11    38 1   
    25    12    13 1   
    26    12    39 1   
    27    13    14 2   
    28    13    15 1   
    29    15    40 1   
    30    15    41 1   
    31    15    42 1   
    32    16    17 2   
    33    16    43 1   
    34    17    18 1   
    35    17    21 1   
    36    18    19 1   
    37    18    20 1   
    38    21    22 1   
    39    21    44 1   
    40    21    57 1   
    41    22    23 1   
    42    22    45 1   
    43    23    24 1   
    44    24    25 1   
    45    24    27 1   
    46    24    46 1   
    47    25    26 1   
    48    25    47 1   
    49    25    48 1   
    50    26    49 1   
    51    26    50 1   
    52    26    51 1   
    53    27    28 1   
    54    27    52 1   
    55    27    53 1   
    56    28    54 1   
    57    28    55 1   
    58    28    56 1   
@<TRIPOS>SUBSTRUCTURE
     1 1SO         1 TEMP              0 ****  ****    0 ROOT
