@<TRIPOS>MOLECULE
1SP
   19    18     1     0     0
SMALL
abcg2


@<TRIPOS>ATOM
      1 C3          -0.7980     0.4620     0.2180 c3         1 1SP      -0.111400
      2 O2           0.6710    -1.4830     0.0910 oh         1 1SP      -0.639000
      3 C4          -2.0120    -0.2390    -0.3790 c3         1 1SP      -0.071400
      4 C1           1.6920     0.7130     0.2880 c3         1 1SP       0.130600
      5 O1           2.9030     0.2180    -0.2350 oh         1 1SP      -0.644000
      6 C5          -3.3240     0.3770     0.0870 c3         1 1SP      -0.090100
      7 C2           0.5350    -0.1170    -0.2440 c3         1 1SP       0.165300
      8 HA           0.5670    -0.0830    -1.3390 h1         1 1SP       0.083700
      9 H31C        -0.8300     1.5240    -0.0460 hc         1 1SP       0.040700
     10 H32C        -0.8520     0.4240     1.3130 hc         1 1SP       0.040700
     11 H11C         1.6810     0.6800     1.3880 h1         1 1SP       0.017200
     12 H12C         1.5270     1.7600     0.0040 h1         1 1SP       0.017200
     13 H41C        -1.9530    -0.1920    -1.4710 hc         1 1SP       0.046700
     14 H42C        -1.9920    -1.2990    -0.1180 hc         1 1SP       0.046700
     15 H51C        -3.4230     0.3200     1.1720 hc         1 1SP       0.031700
     16 H52C        -3.3900     1.4300    -0.1930 hc         1 1SP       0.031700
     17 H53C        -4.1820    -0.1350    -0.3500 hc         1 1SP       0.031700
     18 H1           3.6140     0.7830     0.0780 ho         1 1SP       0.440000
     19 H2           0.5890    -1.5680     1.0470 ho         1 1SP       0.434000
@<TRIPOS>BOND
     1     1     3 1   
     2     1     7 1   
     3     1     9 1   
     4     1    10 1   
     5     2     7 1   
     6     2    19 1   
     7     3     6 1   
     8     3    13 1   
     9     3    14 1   
    10     4     5 1   
    11     4     7 1   
    12     4    11 1   
    13     4    12 1   
    14     5    18 1   
    15     6    15 1   
    16     6    16 1   
    17     6    17 1   
    18     7     8 1   
@<TRIPOS>SUBSTRUCTURE
     1 1SP         1 TEMP              0 ****  ****    0 ROOT
