@<TRIPOS>MOLECULE
1SP
   19    18     1     0     0
SMALL
No Charge or Current Charge


@<TRIPOS>ATOM
      1 C3          -0.8800     0.4880     0.2320 c3         1 1SP      -0.111400
      2 O2           0.6030    -1.4490     0.3600 oh         1 1SP      -0.639000
      3 C4          -2.0880    -0.2410    -0.4040 c3         1 1SP      -0.071400
      4 C1           1.6830     0.7240     0.4010 c3         1 1SP       0.130600
      5 O1           2.9310     0.0820     0.0900 oh         1 1SP      -0.644000
      6 C5          -3.4400     0.4040    -0.0410 c3         1 1SP      -0.090100
      7 C2           0.4960    -0.1120    -0.1510 c3         1 1SP       0.165300
      8 HA           0.5760    -0.1180    -1.2480 h1         1 1SP       0.083700
      9 H31C        -0.9020     1.5390    -0.0800 hc         1 1SP       0.040700
     10 H32C        -0.9870     0.4820     1.3240 hc         1 1SP       0.040700
     11 H11C         1.5750     0.8370     1.4890 h1         1 1SP       0.017200
     12 H12C         1.6510     1.7270    -0.0440 h1         1 1SP       0.017200
     13 H41C        -1.9770    -0.2460    -1.4960 hc         1 1SP       0.046700
     14 H42C        -2.1000    -1.2890    -0.0800 hc         1 1SP       0.046700
     15 H51C        -3.5960     0.3930     1.0440 hc         1 1SP       0.031700
     16 H52C        -3.4780     1.4440    -0.3870 hc         1 1SP       0.031700
     17 H53C        -4.2640    -0.1440    -0.5130 hc         1 1SP       0.031700
     18 H1           3.6480     0.6740     0.4130 ho         1 1SP       0.440000
     19 H2           1.5710    -1.6190     0.4020 ho         1 1SP       0.434000
@<TRIPOS>BOND
     1     1     3 1   
     2     1     7 1   
     3     1     9 1   
     4     1    10 1   
     5     2     7 1   
     6     2    19 1   
     7     3     6 1   
     8     3    13 1   
     9     3    14 1   
    10     4     5 1   
    11     4     7 1   
    12     4    11 1   
    13     4    12 1   
    14     5    18 1   
    15     6    15 1   
    16     6    16 1   
    17     6    17 1   
    18     7     8 1   
@<TRIPOS>SUBSTRUCTURE
     1 1SP         1 TEMP              0 ****  ****    0 ROOT
