@<TRIPOS>MOLECULE
1SQ
   19    20     1     0     0
SMALL
No Charge or Current Charge


@<TRIPOS>ATOM
      1 N1          -2.9370     1.9200     3.5700 nv         1 1SQ      -1.057900
      2 C2          -1.6380     2.2290     3.6740 ca         1 1SQ       0.621900
      3 N3          -1.4520     2.9610     4.7660 nb         1 1SQ      -0.767000
      4 C4          -0.1850     3.3510     5.0330 ca         1 1SQ       0.381900
      5 C5           0.9090     3.0120     4.2190 ca         1 1SQ      -0.209000
      6 C6           0.6940     2.2340     3.0700 ca         1 1SQ       0.021000
      7 C7           1.7580     1.8690     2.2260 ca         1 1SQ      -0.114000
      8 C8           1.5080     1.0900     1.0830 ca         1 1SQ      -0.086000
      9 C9           0.1970     0.6790     0.7860 ca         1 1SQ      -0.126000
     10 C10         -0.8690     1.0430     1.6280 ca         1 1SQ      -0.076000
     11 C11         -0.6210     1.8240     2.7800 ca         1 1SQ      -0.127000
     12 HN11        -3.4700     2.1030     4.4100 hn         1 1SQ       0.474000
     13 HN12        -3.1760     1.0760     3.0630 hn         1 1SQ       0.474000
     14 H4          -0.0420     3.9530     5.9300 h4         1 1SQ       0.014100
     15 H5           1.9050     3.3540     4.4860 ha         1 1SQ       0.123000
     16 H7           2.7730     2.1870     2.4530 ha         1 1SQ       0.117000
     17 H8           2.3290     0.8070     0.4280 ha         1 1SQ       0.114000
     18 H9           0.0060     0.0790    -0.1010 ha         1 1SQ       0.114000
     19 H10         -1.8760     0.7190     1.3780 ha         1 1SQ       0.107000
@<TRIPOS>BOND
     1     1     2 1   
     2     1    12 1   
     3     1    13 1   
     4     2     3 ar  
     5     2    11 ar  
     6     3     4 ar  
     7     4     5 ar  
     8     4    14 1   
     9     5     6 ar  
    10     5    15 1   
    11     6     7 ar  
    12     6    11 ar  
    13     7     8 ar  
    14     7    16 1   
    15     8     9 ar  
    16     8    17 1   
    17     9    10 ar  
    18     9    18 1   
    19    10    11 ar  
    20    10    19 1   
@<TRIPOS>SUBSTRUCTURE
     1 1SQ         1 TEMP              0 ****  ****    0 ROOT
