@<TRIPOS>MOLECULE
1SQ
   19    20     1     0     0
SMALL
bcc


@<TRIPOS>ATOM
      1 N1          -2.9390     1.8720     3.5140 nv         1 1SQ      -0.947500
      2 C2          -1.6440     2.2200     3.7370 ca         1 1SQ       0.687200
      3 N3          -1.3950     2.9640     4.7910 nb         1 1SQ      -0.767000
      4 C4          -0.1280     3.3640     5.0240 ca         1 1SQ       0.447200
      5 C5           0.9380     3.0360     4.2420 ca         1 1SQ      -0.292300
      6 C6           0.7080     2.2370     3.0940 ca         1 1SQ       0.021000
      7 C7           1.7470     1.8550     2.2170 ca         1 1SQ      -0.132000
      8 C8           1.4800     1.0990     1.1060 ca         1 1SQ      -0.104000
      9 C9           0.1630     0.6960     0.8200 ca         1 1SQ      -0.144000
     10 C10         -0.8630     1.0520     1.6570 ca         1 1SQ      -0.094000
     11 C11         -0.6130     1.8190     2.8140 ca         1 1SQ      -0.192300
     12 HN11        -3.5740     2.0380     4.2780 hn         1 1SQ       0.418800
     13 HN12        -3.1470     1.0450     2.9820 hn         1 1SQ       0.418800
     14 H4           0.0100     3.9790     5.9050 h4         1 1SQ       0.014100
     15 H5           1.9350     3.3780     4.4840 ha         1 1SQ       0.141000
     16 H7           2.7600     2.1720     2.4340 ha         1 1SQ       0.135000
     17 H8           2.2840     0.8140     0.4400 ha         1 1SQ       0.132000
     18 H9          -0.0400     0.1090    -0.0650 ha         1 1SQ       0.132000
     19 H10         -1.8680     0.7410     1.4070 ha         1 1SQ       0.125000
@<TRIPOS>BOND
     1     1     2 1   
     2     1    12 1   
     3     1    13 1   
     4     2     3 ar  
     5     2    11 ar  
     6     3     4 ar  
     7     4     5 ar  
     8     4    14 1   
     9     5     6 ar  
    10     5    15 1   
    11     6     7 ar  
    12     6    11 ar  
    13     7     8 ar  
    14     7    16 1   
    15     8     9 ar  
    16     8    17 1   
    17     9    10 ar  
    18     9    18 1   
    19    10    11 ar  
    20    10    19 1   
@<TRIPOS>SUBSTRUCTURE
     1 1SQ         1 TEMP              0 ****  ****    0 ROOT
