@<TRIPOS>MOLECULE
1SS
   41    42     1     0     0
SMALL
No Charge or Current Charge


@<TRIPOS>ATOM
      1 C1           2.7230     0.8610    -0.8550 c6         1 1SS       0.100600
      2 C2           3.1370    -0.6180    -0.8770 c6         1 1SS      -0.101400
      3 C3           1.8930    -1.5140    -1.0530 c6         1 1SS      -0.088400
      4 C4           0.8180    -1.2670     0.0500 c6         1 1SS      -0.059000
      5 C5           0.4200     0.2670     0.0790 c6         1 1SS       0.123300
      6 C6          -0.4260    -2.1110    -0.3180 c6         1 1SS      -0.069400
      7 C7          -2.0480    -1.4830     0.9460 c6         1 1SS      -0.078400
      8 C8          -2.0920     0.0580     0.8830 c6         1 1SS      -0.013500
      9 C9          -0.6640     0.6180     1.1670 c6         1 1SS      -0.093400
     10 C10          1.4160     2.6570     0.3110 c3         1 1SS       0.071900
     11 C11          1.3640    -1.7540     1.4350 c3         1 1SS      -0.103100
     12 C12         -2.6880     0.6360    -0.4200 c2         1 1SS      -0.149400
     13 C13         -2.9460     2.1350    -0.3940 c3         1 1SS      -0.057900
     14 C14         -3.0070    -0.1000    -1.5010 c2         1 1SS      -0.289000
     15 N1           1.6880     1.1450     0.2430 nx         1 1SS      -0.661000
     16 H1           3.5910     1.5070    -0.6820 hx         1 1SS       0.092200
     17 H2           2.2740     1.1520    -1.8100 hx         1 1SS       0.092200
     18 H3           3.8390    -0.7880    -1.7040 hc         1 1SS       0.083700
     19 H4           3.6800    -0.8730     0.0430 hc         1 1SS       0.083700
     20 H5           1.4660    -1.3240    -2.0490 hc         1 1SS       0.075200
     21 H6           2.1960    -2.5710    -1.0560 hc         1 1SS       0.075200
     22 H7           0.0120     0.5370    -0.9010 hx         1 1SS       0.100700
     23 H8          -0.7000    -1.9520    -1.3690 hc         1 1SS       0.063200
     24 H9          -0.2350    -3.1860    -0.1970 hc         1 1SS       0.063200
     25 H10         -3.0010    -1.9360     0.6410 hc         1 1SS       0.064200
     26 H11         -1.8580    -1.8110     1.9770 hc         1 1SS       0.064200
     27 H12         -2.7470     0.3840     1.7050 hc         1 1SS       0.080700
     28 H13         -0.3280     0.2910     2.1590 hc         1 1SS       0.060200
     29 H14         -0.7660     1.7020     1.2700 hc         1 1SS       0.060200
     30 H15          0.8640     2.9670    -0.5800 hx         1 1SS       0.096367
     31 H16          0.8330     2.8970     1.2030 hx         1 1SS       0.096367
     32 H17          2.3640     3.1980     0.3540 hx         1 1SS       0.096367
     33 H18          2.1640    -1.1120     1.8180 hc         1 1SS       0.050033
     34 H19          0.5820    -1.7870     2.2010 hc         1 1SS       0.050033
     35 H20          1.7710    -2.7700     1.3640 hc         1 1SS       0.050033
     36 H21         -2.0110     2.7060    -0.3700 hc         1 1SS       0.041700
     37 H22         -3.4980     2.4660    -1.2820 hc         1 1SS       0.041700
     38 H23         -3.5400     2.4220     0.4820 hc         1 1SS       0.041700
     39 H24         -3.4390     0.3580    -2.3910 ha         1 1SS       0.175000
     40 H25         -2.8650    -1.1780    -1.5560 ha         1 1SS       0.175000
     41 H26          2.1270     0.8810     1.1530 hn         1 1SS       0.495000
@<TRIPOS>BOND
     1     1     2 1   
     2     1    15 1   
     3     1    16 1   
     4     1    17 1   
     5     2     3 1   
     6     2    18 1   
     7     2    19 1   
     8     3     4 1   
     9     3    20 1   
    10     3    21 1   
    11     4     5 1   
    12     4     6 1   
    13     4    11 1   
    14     5     9 1   
    15     5    15 1   
    16     5    22 1   
    17     6     7 1   
    18     6    23 1   
    19     6    24 1   
    20     7     8 1   
    21     7    25 1   
    22     7    26 1   
    23     8     9 1   
    24     8    12 1   
    25     8    27 1   
    26     9    28 1   
    27     9    29 1   
    28    10    15 1   
    29    10    30 1   
    30    10    31 1   
    31    10    32 1   
    32    11    33 1   
    33    11    34 1   
    34    11    35 1   
    35    12    13 1   
    36    12    14 2   
    37    13    36 1   
    38    13    37 1   
    39    13    38 1   
    40    14    39 1   
    41    14    40 1   
    42    15    41 1   
@<TRIPOS>SUBSTRUCTURE
     1 1SS         1 TEMP              0 ****  ****    0 ROOT
