@<TRIPOS>MOLECULE
1SS
   41    42     1     0     0
SMALL
bcc


@<TRIPOS>ATOM
      1 C1           2.6790     0.8460    -0.7810 c6         1 1SS       0.128800
      2 C2           3.0150    -0.6260    -0.8560 c6         1 1SS      -0.101400
      3 C3           1.7580    -1.4660    -1.0060 c6         1 1SS      -0.088400
      4 C4           0.7450    -1.1790     0.1080 c6         1 1SS      -0.059000
      5 C5           0.4160     0.3270     0.1030 c6         1 1SS       0.151500
      6 C6          -0.5610    -1.9290    -0.1950 c6         1 1SS      -0.069400
      7 C7          -1.7180    -1.5500     0.7250 c6         1 1SS      -0.078400
      8 C8          -1.9680    -0.0430     0.7730 c6         1 1SS      -0.013500
      9 C9          -0.6570     0.6800     1.1220 c6         1 1SS      -0.093400
     10 C10          1.4310     2.6030     0.3560 c3         1 1SS       0.100100
     11 C11          1.3060    -1.6520     1.4550 c3         1 1SS      -0.103100
     12 C12         -2.6260     0.5530    -0.4580 c2         1 1SS      -0.149400
     13 C13         -2.8050     2.0460    -0.4430 c3         1 1SS      -0.057900
     14 C14         -3.0870    -0.1670    -1.4800 c2         1 1SS      -0.189000
     15 N1           1.6760     1.1410     0.2930 nx         1 1SS      -0.690400
     16 H1           3.5600     1.4480    -0.5650 hx         1 1SS       0.092200
     17 H2           2.2370     1.2000    -1.7130 hx         1 1SS       0.092200
     18 H3           3.6750    -0.7640    -1.7140 hc         1 1SS       0.083700
     19 H4           3.5910    -0.9260     0.0220 hc         1 1SS       0.083700
     20 H5           1.2970    -1.2480    -1.9760 hc         1 1SS       0.075200
     21 H6           2.0100    -2.5290    -1.0090 hc         1 1SS       0.075200
     22 H7           0.0650     0.6010    -0.8990 hx         1 1SS       0.100700
     23 H8          -0.8380    -1.7420    -1.2360 hc         1 1SS       0.063200
     24 H9          -0.3660    -3.0030    -0.1190 hc         1 1SS       0.063200
     25 H10         -2.6230    -2.0800     0.4220 hc         1 1SS       0.064200
     26 H11         -1.5080    -1.8910     1.7420 hc         1 1SS       0.064200
     27 H12         -2.6560     0.1610     1.6020 hc         1 1SS       0.080700
     28 H13         -0.3360     0.3880     2.1250 hc         1 1SS       0.060200
     29 H14         -0.8390     1.7520     1.1630 hc         1 1SS       0.060200
     30 H15          0.8520     2.9060    -0.5130 hx         1 1SS       0.096367
     31 H16          0.9050     2.8550     1.2700 hx         1 1SS       0.096367
     32 H17          2.3890     3.1140     0.3530 hx         1 1SS       0.096367
     33 H18          2.1900    -1.1030     1.7870 hc         1 1SS       0.050033
     34 H19          0.5770    -1.5960     2.2610 hc         1 1SS       0.050033
     35 H20          1.6090    -2.6960     1.3690 hc         1 1SS       0.050033
     36 H21         -1.8580     2.5730    -0.5870 hc         1 1SS       0.041700
     37 H22         -3.4780     2.3720    -1.2340 hc         1 1SS       0.041700
     38 H23         -3.2090     2.3890     0.5120 hc         1 1SS       0.041700
     39 H24         -3.5940     0.3110    -2.3090 ha         1 1SS       0.125000
     40 H25         -2.9880    -1.2420    -1.5410 ha         1 1SS       0.125000
     41 H26          2.0930     0.8730     1.1860 hn         1 1SS       0.439800
@<TRIPOS>BOND
     1     1     2 1   
     2     1    15 1   
     3     1    16 1   
     4     1    17 1   
     5     2     3 1   
     6     2    18 1   
     7     2    19 1   
     8     3     4 1   
     9     3    20 1   
    10     3    21 1   
    11     4     5 1   
    12     4     6 1   
    13     4    11 1   
    14     5     9 1   
    15     5    15 1   
    16     5    22 1   
    17     6     7 1   
    18     6    23 1   
    19     6    24 1   
    20     7     8 1   
    21     7    25 1   
    22     7    26 1   
    23     8     9 1   
    24     8    12 1   
    25     8    27 1   
    26     9    28 1   
    27     9    29 1   
    28    10    15 1   
    29    10    30 1   
    30    10    31 1   
    31    10    32 1   
    32    11    33 1   
    33    11    34 1   
    34    11    35 1   
    35    12    13 1   
    36    12    14 2   
    37    13    36 1   
    38    13    37 1   
    39    13    38 1   
    40    14    39 1   
    41    14    40 1   
    42    15    41 1   
@<TRIPOS>SUBSTRUCTURE
     1 1SS         1 TEMP              0 ****  ****    0 ROOT
