@<TRIPOS>MOLECULE
1SU
   57    61     1     0     0
SMALL
bcc


@<TRIPOS>ATOM
      1 C4          -6.0310    -2.8290     2.3040 ca         1 1SU      -0.069000
      2 C5           3.2710     1.5290     0.5280 ca         1 1SU      -0.022000
      3 C6           2.1710     1.8790    -0.2330 ca         1 1SU      -0.203000
      4 C7           0.0410     3.8110    -2.2120 ca         1 1SU      -0.132000
      5 C8          -0.9740     4.6590    -1.7910 ca         1 1SU      -0.129000
      6 C10         -1.0820     1.9580    -1.1160 ca         1 1SU      -0.143000
      7 C13         -6.6400    -2.0990     1.2940 ca         1 1SU      -0.195300
      8 C15         -2.1020     2.8050    -0.6850 ca         1 1SU       0.054600
      9 C17          1.9820     1.3250    -1.4990 ca         1 1SU       0.184100
     10 C20          5.9850    -0.6450    -0.0170 cc         1 1SU       0.480800
     11 C21          7.8770    -1.1140     1.4760 c          1 1SU       0.708100
     12 C22         -3.4800     1.1840     0.5840 c          1 1SU       0.674100
     13 C24         10.3180    -1.3640     2.1960 cx         1 1SU      -0.091900
     14 C26         -4.7370     1.1720     1.4380 c3         1 1SU      -0.114100
     15 C2          -5.0030    -2.2490     3.0360 ca         1 1SU      -0.133000
     16 C3          -4.5900    -0.9570     2.7610 ca         1 1SU      -0.073000
     17 C9          -6.2240    -0.8000     1.0180 ca         1 1SU      -0.067000
     18 C11          2.9050     0.4100    -2.0140 ca         1 1SU      -0.019000
     19 C12         -5.1980    -0.2190     1.7480 ca         1 1SU      -0.081300
     20 C14          4.2050     0.6190     0.0380 ca         1 1SU       0.088400
     21 C16         -0.0370     2.4760    -1.8650 ca         1 1SU       0.103100
     22 C18         -2.0100     4.1520    -1.0440 ca         1 1SU       0.073900
     23 C19          4.0090     0.0700    -1.2330 ca         1 1SU      -0.007100
     24 C23          9.5630    -2.4480     2.8660 cx         1 1SU      -0.091900
     25 C25          9.1010    -1.9460     1.5200 cx         1 1SU      -0.257700
     26 C27         -7.7720    -2.6690     0.5000 c3         1 1SU       0.721200
     27 N28          2.5850    -0.6300    -4.3430 n1         1 1SU      -0.352800
     28 N29          5.3310     0.1920     0.6980 nd         1 1SU      -0.543100
     29 N30         -3.2000     2.4130     0.0720 ns         1 1SU      -0.474100
     30 N31          7.1510    -1.2780     0.3120 ns         1 1SU      -0.480400
     31 O32          7.5400    -0.3620     2.3620 o          1 1SU      -0.521100
     32 O33         -2.7950     0.1990     0.4040 o          1 1SU      -0.555100
     33 O34          0.9420     1.6110    -2.3070 os         1 1SU      -0.235200
     34 F35         -2.9870     4.9790    -0.6330 f          1 1SU      -0.147900
     35 F36         -8.9330    -2.0590     0.7870 f          1 1SU      -0.234633
     36 F37         -7.5830    -2.5170    -0.8190 f          1 1SU      -0.234633
     37 F38         -7.9540    -3.9740     0.7200 f          1 1SU      -0.234633
     38 S39          5.2950    -1.0160    -1.6030 ss         1 1SU      -0.118100
     39 H1          -6.3420    -3.8390     2.5330 ha         1 1SU       0.151000
     40 H2           3.4090     1.9620     1.5090 ha         1 1SU       0.158000
     41 H3           1.4600     2.5870     0.1700 ha         1 1SU       0.153000
     42 H4           0.8680     4.1890    -2.7970 ha         1 1SU       0.159000
     43 H5          -0.9570     5.7120    -2.0400 ha         1 1SU       0.158000
     44 H6          -1.0990     0.9080    -0.8760 ha         1 1SU       0.188000
     45 H7          10.2320    -0.3600     2.5910 hc         1 1SU       0.084950
     46 H8          11.2740    -1.5960     1.7450 hc         1 1SU       0.084950
     47 H9          -4.5120     1.7150     2.3610 hc         1 1SU       0.071700
     48 H10         -5.5260     1.7390     0.9370 hc         1 1SU       0.071700
     49 H11         -4.5250    -2.8150     3.8250 ha         1 1SU       0.142000
     50 H12         -3.7910    -0.5140     3.3430 ha         1 1SU       0.138000
     51 H13         -6.6980    -0.2250     0.2310 ha         1 1SU       0.143000
     52 H14          9.9870    -3.4420     2.8840 hc         1 1SU       0.084950
     53 H15          8.9550    -2.1940     3.7240 hc         1 1SU       0.084950
     54 H16          9.2800    -2.5960     0.6720 hc         1 1SU       0.087700
     55 H17         -3.8580     3.1440     0.2970 hn         1 1SU       0.331500
     56 H18          7.5290    -1.9210    -0.3680 hn         1 1SU       0.333500
     57 C1           2.7130    -0.1550    -3.3010 cg         1 1SU       0.247800
@<TRIPOS>BOND
     1     1     7 ar  
     2     1    15 ar  
     3     1    39 1   
     4     2     3 ar  
     5     2    20 ar  
     6     2    40 1   
     7     3     9 ar  
     8     3    41 1   
     9     4     5 ar  
    10     4    21 ar  
    11     4    42 1   
    12     5    22 ar  
    13     5    43 1   
    14     6     8 ar  
    15     6    21 ar  
    16     6    44 1   
    17     7    17 ar  
    18     7    26 1   
    19     8    22 ar  
    20     8    29 1   
    21     9    18 ar  
    22     9    33 1   
    23    10    28 2   
    24    10    30 1   
    25    10    38 1   
    26    11    25 1   
    27    11    30 1   
    28    11    31 2   
    29    12    14 1   
    30    12    29 1   
    31    12    32 2   
    32    13    24 1   
    33    13    25 1   
    34    13    45 1   
    35    13    46 1   
    36    14    19 1   
    37    14    47 1   
    38    14    48 1   
    39    15    16 ar  
    40    15    49 1   
    41    16    19 ar  
    42    16    50 1   
    43    17    19 ar  
    44    17    51 1   
    45    18    23 ar  
    46    18    57 1   
    47    20    23 ar  
    48    20    28 1   
    49    21    33 1   
    50    22    34 1   
    51    23    38 1   
    52    24    25 1   
    53    24    52 1   
    54    24    53 1   
    55    25    54 1   
    56    26    35 1   
    57    26    36 1   
    58    26    37 1   
    59    27    57 3   
    60    29    55 1   
    61    30    56 1   
@<TRIPOS>SUBSTRUCTURE
     1 1SU         1 TEMP              0 ****  ****    0 ROOT
