@<TRIPOS>MOLECULE
1SU
   57    61     1     0     0
SMALL
No Charge or Current Charge


@<TRIPOS>ATOM
      1 C4          -5.8170    -2.8270     1.4580 ca         1 1SU      -0.051000
      2 C5           3.2910     2.0710     0.3910 ca         1 1SU      -0.004000
      3 C6           2.2850     2.4690    -0.5130 ca         1 1SU      -0.185000
      4 C7          -0.7880     3.5990    -2.8980 ca         1 1SU      -0.114000
      5 C8          -2.0490     4.0830    -2.5140 ca         1 1SU      -0.111000
      6 C10         -0.8310     2.0210    -1.0390 ca         1 1SU      -0.125000
      7 C13         -6.2370    -1.5870     0.9280 ca         1 1SU      -0.195300
      8 C15         -2.0990     2.5050    -0.6400 ca         1 1SU      -0.038000
      9 C17          2.0330     1.7110    -1.6780 ca         1 1SU       0.184100
     10 C20          5.5680    -0.6550     0.3960 cc         1 1SU       0.480800
     11 C21          7.2720    -1.1280     2.1490 c          1 1SU       0.641100
     12 C22         -2.5060     1.0360     1.4370 c          1 1SU       0.607100
     13 C24          9.5350    -2.2410     1.4880 cx         1 1SU      -0.091900
     14 C26         -3.6200     0.7840     2.4610 c3         1 1SU      -0.114100
     15 C2          -4.6930    -2.8940     2.2990 ca         1 1SU      -0.115000
     16 C3          -3.9820    -1.7290     2.6240 ca         1 1SU      -0.055000
     17 C9          -5.5200    -0.4190     1.2690 ca         1 1SU      -0.049000
     18 C11          2.8050     0.5590    -1.9510 ca         1 1SU      -0.019000
     19 C12         -4.3940    -0.4840     2.1130 ca         1 1SU      -0.081300
     20 C14          4.0470     0.9190     0.1190 ca         1 1SU       0.088400
     21 C16         -0.1760     2.5770    -2.1570 ca         1 1SU       0.103100
     22 C18         -2.6960     3.5400    -1.3920 ca         1 1SU       0.109000
     23 C19          3.8040     0.1880    -1.0270 ca         1 1SU      -0.134000
     24 C23          9.7130    -1.6820     2.8800 cx         1 1SU      -0.091900
     25 C25          8.3450    -2.1540     2.4260 cx         1 1SU      -0.257700
     26 C27         -7.4650    -1.4990     0.0160 c3         1 1SU       0.357300
     27 N28          2.3850    -0.8560    -4.0990 n1         1 1SU      -0.442000
     28 N29          5.0570     0.4510     0.9500 nd         1 1SU      -0.543100
     29 N30         -2.8170     1.9940     0.4800 ns         1 1SU      -0.148000
     30 N31          6.5970    -1.3660     0.9770 ns         1 1SU      -0.413400
     31 O32          7.0500    -0.2030     2.9160 o          1 1SU      -0.521100
     32 O33         -1.4480     0.4190     1.4790 o          1 1SU      -0.555100
     33 O34          1.0540     2.1110    -2.5640 os         1 1SU      -0.235200
     34 F35         -3.9100     4.0200    -1.0380 f          1 1SU      -0.183000
     35 F36         -8.5770    -1.1860     0.7180 f          1 1SU      -0.113333
     36 F37         -7.3230    -0.5540    -0.9420 f          1 1SU      -0.113333
     37 F38         -7.7200    -2.6630    -0.6270 f          1 1SU      -0.113333
     38 S39          4.8750    -1.2010    -1.1490 ss         1 1SU       0.008800
     39 H1          -6.3570    -3.7420     1.2240 ha         1 1SU       0.133000
     40 H2           3.4850     2.6510     1.2900 ha         1 1SU       0.140000
     41 H3           1.7070     3.3660    -0.3080 ha         1 1SU       0.135000
     42 H4          -0.2840     4.0150    -3.7670 ha         1 1SU       0.141000
     43 H5          -2.5270     4.8780    -3.0820 ha         1 1SU       0.140000
     44 H6          -0.3460     1.2130    -0.5020 ha         1 1SU       0.170000
     45 H7           9.5950    -1.5420     0.6560 hc         1 1SU       0.084950
     46 H8           9.9500    -3.2260     1.2820 hc         1 1SU       0.084950
     47 H9          -3.1660     0.6770     3.4530 hc         1 1SU       0.071700
     48 H10         -4.3130     1.6340     2.4720 hc         1 1SU       0.071700
     49 H11         -4.3740    -3.8530     2.7000 ha         1 1SU       0.124000
     50 H12         -3.1110    -1.7940     3.2730 ha         1 1SU       0.120000
     51 H13         -5.8410     0.5450     0.8780 ha         1 1SU       0.125000
     52 H14         10.2460    -2.2920     3.6060 hc         1 1SU       0.084950
     53 H15          9.8860    -0.6120     2.9750 hc         1 1SU       0.084950
     54 H16          7.9840    -3.0850     2.8550 hc         1 1SU       0.087700
     55 H17         -3.7320     2.4090     0.5960 hn         1 1SU       0.165000
     56 H18          6.9180    -2.1860     0.4820 hn         1 1SU       0.333500
     57 C1           2.5690    -0.2170    -3.1390 cg         1 1SU       0.337000
@<TRIPOS>BOND
     1     1     7 ar  
     2     1    15 ar  
     3     1    39 1   
     4     2     3 ar  
     5     2    20 ar  
     6     2    40 1   
     7     3     9 ar  
     8     3    41 1   
     9     4     5 ar  
    10     4    21 ar  
    11     4    42 1   
    12     5    22 ar  
    13     5    43 1   
    14     6     8 ar  
    15     6    21 ar  
    16     6    44 1   
    17     7    17 ar  
    18     7    26 1   
    19     8    22 ar  
    20     8    29 1   
    21     9    18 ar  
    22     9    33 1   
    23    10    28 2   
    24    10    30 1   
    25    10    38 1   
    26    11    25 1   
    27    11    30 1   
    28    11    31 2   
    29    12    14 1   
    30    12    29 1   
    31    12    32 2   
    32    13    24 1   
    33    13    25 1   
    34    13    45 1   
    35    13    46 1   
    36    14    19 1   
    37    14    47 1   
    38    14    48 1   
    39    15    16 ar  
    40    15    49 1   
    41    16    19 ar  
    42    16    50 1   
    43    17    19 ar  
    44    17    51 1   
    45    18    23 ar  
    46    18    57 1   
    47    20    23 ar  
    48    20    28 1   
    49    21    33 1   
    50    22    34 1   
    51    23    38 1   
    52    24    25 1   
    53    24    52 1   
    54    24    53 1   
    55    25    54 1   
    56    26    35 1   
    57    26    36 1   
    58    26    37 1   
    59    27    57 3   
    60    29    55 1   
    61    30    56 1   
@<TRIPOS>SUBSTRUCTURE
     1 1SU         1 TEMP              0 ****  ****    0 ROOT
