@<TRIPOS>MOLECULE
1SV
   36    37     1     0     0
SMALL
No Charge or Current Charge


@<TRIPOS>ATOM
      1 C2           3.2010    -0.3770     0.4260 c6         1 1SV      -0.101400
      2 C1           2.5810    -1.6610    -0.1740 c6         1 1SV       0.030600
      3 N1           1.3860    -1.3400    -0.9750 nu         1 1SV      -0.303700
      4 C9           0.5500    -0.2460    -0.7490 c2         1 1SV       0.404300
      5 C4           0.9830     0.9210     0.1610 c6         1 1SV      -0.136300
      6 C3           2.1160     0.4660     1.1420 c6         1 1SV      -0.087400
      7 C8          -0.7470    -0.0980    -1.5310 c6         1 1SV      -0.175700
      8 C7          -1.9300     0.4050    -0.6550 c6         1 1SV      -0.008500
      9 C6          -1.5110     1.6620     0.1570 c6         1 1SV      -0.081400
     10 C5          -0.2330     1.4290     1.0050 c6         1 1SV      -0.069400
     11 C10          1.5220     2.0750    -0.7540 c3         1 1SV      -0.096100
     12 C11         -2.5860    -0.6650     0.2390 c2         1 1SV      -0.163400
     13 C12         -1.7410    -1.8350     0.7290 c3         1 1SV      -0.053900
     14 C13         -3.8850    -0.5570     0.5670 c2         1 1SV      -0.261000
     15 H1           3.9910    -0.6520     1.1400 hc         1 1SV       0.086200
     16 H2           3.6970     0.2070    -0.3610 hc         1 1SV       0.086200
     17 H3           3.3270    -2.1950    -0.7820 h1         1 1SV       0.095700
     18 H4           2.2960    -2.3320     0.6510 h1         1 1SV       0.095700
     19 H5           1.6920    -0.1380     1.9570 hc         1 1SV       0.079700
     20 H6           2.5770     1.3390     1.6270 hc         1 1SV       0.079700
     21 H7          -0.5750     0.6180    -2.3460 hc         1 1SV       0.093200
     22 H8          -1.0170    -1.0420    -2.0230 hc         1 1SV       0.093200
     23 H9          -2.7120     0.7400    -1.3540 hc         1 1SV       0.083700
     24 H10         -1.3560     2.5070    -0.5280 hc         1 1SV       0.070200
     25 H11         -2.3360     1.9700     0.8140 hc         1 1SV       0.070200
     26 H12         -0.4720     0.7120     1.8010 hc         1 1SV       0.071700
     27 H13          0.0340     2.3600     1.5250 hc         1 1SV       0.071700
     28 H14          0.7550     2.4620    -1.4340 hc         1 1SV       0.062367
     29 H15          1.8800     2.9230    -0.1590 hc         1 1SV       0.062367
     30 H16          2.3560     1.7450    -1.3850 hc         1 1SV       0.062367
     31 H17         -0.8710    -1.5020     1.3050 hc         1 1SV       0.037033
     32 H18         -2.3190    -2.4970     1.3850 hc         1 1SV       0.037033
     33 H19         -1.3840    -2.4530    -0.1030 hc         1 1SV       0.037033
     34 H20         -4.5010     0.2740     0.2220 ha         1 1SV       0.180500
     35 H21         -4.3850    -1.2960     1.1950 ha         1 1SV       0.180500
     36 H22          1.0800    -2.0060    -1.6790 hn         1 1SV       0.367000
@<TRIPOS>BOND
     1     1     2 1   
     2     1     6 1   
     3     1    15 1   
     4     1    16 1   
     5     2     3 1   
     6     2    17 1   
     7     2    18 1   
     8     3     4 2   
     9     3    36 1   
    10     4     5 1   
    11     4     7 1   
    12     5     6 1   
    13     5    10 1   
    14     5    11 1   
    15     6    19 1   
    16     6    20 1   
    17     7     8 1   
    18     7    21 1   
    19     7    22 1   
    20     8     9 1   
    21     8    12 1   
    22     8    23 1   
    23     9    10 1   
    24     9    24 1   
    25     9    25 1   
    26    10    26 1   
    27    10    27 1   
    28    11    28 1   
    29    11    29 1   
    30    11    30 1   
    31    12    13 1   
    32    12    14 2   
    33    13    31 1   
    34    13    32 1   
    35    13    33 1   
    36    14    34 1   
    37    14    35 1   
@<TRIPOS>SUBSTRUCTURE
     1 1SV         1 TEMP              0 ****  ****    0 ROOT
