@<TRIPOS>MOLECULE
1SV
   36    37     1     0     0
SMALL
bcc


@<TRIPOS>ATOM
      1 C2           3.1690    -0.3630     0.3910 c6         1 1SV      -0.101400
      2 C1           2.5390    -1.5960    -0.2170 c6         1 1SV       0.001300
      3 N1           1.2610    -1.2850    -0.8540 nu         1 1SV      -0.224100
      4 C9           0.5500    -0.2270    -0.7080 c2         1 1SV       0.404300
      5 C4           0.9930     0.9000     0.1810 c6         1 1SV      -0.136300
      6 C3           2.1100     0.4430     1.1240 c6         1 1SV      -0.087400
      7 C8          -0.7180    -0.0940    -1.4790 c6         1 1SV      -0.175700
      8 C7          -1.9000     0.4120    -0.6350 c6         1 1SV      -0.008500
      9 C6          -1.4650     1.6420     0.1730 c6         1 1SV      -0.081400
     10 C5          -0.2130     1.4010     1.0020 c6         1 1SV      -0.069400
     11 C10          1.5010     2.0260    -0.7410 c3         1 1SV      -0.096100
     12 C11         -2.5510    -0.6630     0.2150 c2         1 1SV      -0.163400
     13 C12         -1.7140    -1.7520     0.8240 c3         1 1SV      -0.053900
     14 C13         -3.8680    -0.6270     0.4100 c2         1 1SV      -0.161000
     15 H1           3.9560    -0.6780     1.0750 hc         1 1SV       0.086200
     16 H2           3.6480     0.2360    -0.3840 hc         1 1SV       0.086200
     17 H3           3.1690    -2.0480    -0.9810 h1         1 1SV       0.095700
     18 H4           2.3380    -2.3590     0.5380 h1         1 1SV       0.095700
     19 H5           1.6830    -0.1630     1.9290 hc         1 1SV       0.079700
     20 H6           2.5500     1.3230     1.5950 hc         1 1SV       0.079700
     21 H7          -0.5230     0.6470    -2.2610 hc         1 1SV       0.093200
     22 H8          -0.9600    -1.0260    -1.9920 hc         1 1SV       0.093200
     23 H9          -2.6540     0.7510    -1.3480 hc         1 1SV       0.083700
     24 H10         -1.2960     2.4670    -0.5230 hc         1 1SV       0.070200
     25 H11         -2.2810     1.9550     0.8250 hc         1 1SV       0.070200
     26 H12         -0.4220     0.6890     1.8040 hc         1 1SV       0.071700
     27 H13          0.0920     2.3260     1.4960 hc         1 1SV       0.071700
     28 H14          0.7140     2.4460    -1.3640 hc         1 1SV       0.062367
     29 H15          1.8920     2.8290    -0.1150 hc         1 1SV       0.062367
     30 H16          2.3040     1.6940    -1.3990 hc         1 1SV       0.062367
     31 H17         -0.8890    -1.3690     1.4300 hc         1 1SV       0.037033
     32 H18         -2.3180    -2.3900     1.4680 hc         1 1SV       0.037033
     33 H19         -1.2750    -2.3960     0.0590 hc         1 1SV       0.037033
     34 H20         -4.4900     0.1350    -0.0440 ha         1 1SV       0.130500
     35 H21         -4.3720    -1.3550     1.0340 ha         1 1SV       0.130500
     36 H22          0.9040    -2.0060    -1.4730 hn         1 1SV       0.316700
@<TRIPOS>BOND
     1     1     2 1   
     2     1     6 1   
     3     1    15 1   
     4     1    16 1   
     5     2     3 1   
     6     2    17 1   
     7     2    18 1   
     8     3     4 2   
     9     3    36 1   
    10     4     5 1   
    11     4     7 1   
    12     5     6 1   
    13     5    10 1   
    14     5    11 1   
    15     6    19 1   
    16     6    20 1   
    17     7     8 1   
    18     7    21 1   
    19     7    22 1   
    20     8     9 1   
    21     8    12 1   
    22     8    23 1   
    23     9    10 1   
    24     9    24 1   
    25     9    25 1   
    26    10    26 1   
    27    10    27 1   
    28    11    28 1   
    29    11    29 1   
    30    11    30 1   
    31    12    13 1   
    32    12    14 2   
    33    13    31 1   
    34    13    32 1   
    35    13    33 1   
    36    14    34 1   
    37    14    35 1   
@<TRIPOS>SUBSTRUCTURE
     1 1SV         1 TEMP              0 ****  ****    0 ROOT
