@<TRIPOS>MOLECULE
1SW
   56    60     1     0     0
SMALL
bcc


@<TRIPOS>ATOM
      1 F1          -5.0300     3.0160    -1.8490 f          1 1SW      -0.143900
      2 C2          -3.8400     3.0420    -1.2330 ca         1 1SW       0.093900
      3 C3          -2.9450     4.0440    -1.5380 ca         1 1SW      -0.139000
      4 C4          -1.7110     4.0660    -0.9060 ca         1 1SW      -0.120000
      5 C5          -1.4290     3.0910     0.0340 ca         1 1SW       0.094100
      6 O6          -0.2330     3.1430     0.7170 os         1 1SW      -0.238200
      7 C7           0.8390     2.4880     0.2280 ca         1 1SW       0.180100
      8 C8           0.8130     1.6620    -0.8960 ca         1 1SW      -0.198000
      9 C9           1.9630     1.0240    -1.3220 ca         1 1SW      -0.020000
     10 C10          3.1610     1.1990    -0.6350 ca         1 1SW       0.090400
     11 N11          4.3660     0.6280    -0.9640 nc         1 1SW      -0.542100
     12 C12          5.2790     0.9900    -0.1430 cd         1 1SW       0.481800
     13 N13          6.5970     0.6290    -0.1610 ns         1 1SW      -0.480400
     14 C14          7.1890    -0.2860    -1.0110 c          1 1SW       0.708100
     15 O15          6.5710    -0.9050    -1.8470 o          1 1SW      -0.520100
     16 C16          8.6460    -0.4250    -0.7890 cx         1 1SW      -0.257700
     17 C17          9.5110    -0.7340    -1.9870 cx         1 1SW      -0.091400
     18 C18          9.2610    -1.7900    -0.9790 cx         1 1SW      -0.091400
     19 S19          4.7690     2.0830     1.1510 ss         1 1SW      -0.121100
     20 C20          3.1790     2.0300     0.4900 ca         1 1SW      -0.008100
     21 C21          2.0290     2.6810     0.9350 ca         1 1SW      -0.021000
     22 C22          2.0560     3.5230     2.0770 cg         1 1SW       0.248800
     23 N23          2.1110     4.2010     3.0080 n1         1 1SW      -0.356800
     24 C24         -2.3340     2.0940     0.3550 ca         1 1SW      -0.112000
     25 C25         -3.5660     2.0510    -0.2930 ca         1 1SW       0.046600
     26 N26         -4.5360     1.0910    -0.0110 ns         1 1SW      -0.492100
     27 C27         -4.2640    -0.2460     0.1410 c          1 1SW       0.802100
     28 O28         -3.1430    -0.7090     0.0790 o          1 1SW      -0.593100
     29 N29         -5.3930    -0.9820     0.3730 ns         1 1SW      -0.487100
     30 C30         -5.4840    -2.3610     0.5580 ca         1 1SW       0.081600
     31 C31         -6.6540    -2.8460     1.1500 ca         1 1SW      -0.159000
     32 C32         -6.8370    -4.2020     1.3390 ca         1 1SW      -0.105000
     33 C33         -5.8620    -5.1110     0.9510 ca         1 1SW      -0.104000
     34 C34         -4.7050    -4.6280     0.3620 ca         1 1SW      -0.167300
     35 C35         -4.5050    -3.2660     0.1570 ca         1 1SW      -0.103000
     36 C36         -3.6190    -5.5580    -0.0870 c3         1 1SW       0.719200
     37 F37         -3.3580    -5.4200    -1.3950 f          1 1SW      -0.232967
     38 F38         -2.4660    -5.3210     0.5570 f          1 1SW      -0.232967
     39 F39         -3.9210    -6.8430     0.1170 f          1 1SW      -0.232967
     40 H1          -3.2040     4.7950    -2.2710 ha         1 1SW       0.159000
     41 H2          -0.9890     4.8380    -1.1360 ha         1 1SW       0.159000
     42 H3          -0.1080     1.5120    -1.4430 ha         1 1SW       0.157000
     43 H4           1.9330     0.3850    -2.1940 ha         1 1SW       0.161000
     44 H5           7.1980     1.0650     0.5220 hn         1 1SW       0.333500
     45 H6           9.0860     0.2010    -0.0220 hc         1 1SW       0.086700
     46 H7           9.0160    -0.8140    -2.9460 hc         1 1SW       0.084700
     47 H8          10.4810    -0.2560    -2.0130 hc         1 1SW       0.084700
     48 H9          10.0550    -2.0540    -0.2940 hc         1 1SW       0.084700
     49 H10          8.5950    -2.6020    -1.2400 hc         1 1SW       0.084700
     50 H11         -2.0900     1.3680     1.1160 ha         1 1SW       0.176000
     51 H12         -5.4960     1.3700    -0.1420 hn         1 1SW       0.327500
     52 H13         -6.2500    -0.4760     0.5390 hn         1 1SW       0.318500
     53 H14         -7.4250    -2.1530     1.4640 ha         1 1SW       0.132000
     54 H15         -7.7500    -4.5560     1.7990 ha         1 1SW       0.140000
     55 H16         -6.0200    -6.1680     1.1100 ha         1 1SW       0.154000
     56 H17         -3.6010    -2.9170    -0.3150 ha         1 1SW       0.178000
@<TRIPOS>BOND
     1     1     2 1   
     2     2     3 ar  
     3     2    25 ar  
     4     3     4 ar  
     5     3    40 1   
     6     4     5 ar  
     7     4    41 1   
     8     5     6 1   
     9     5    24 ar  
    10     6     7 1   
    11     7     8 ar  
    12     7    21 ar  
    13     8     9 ar  
    14     8    42 1   
    15     9    10 ar  
    16     9    43 1   
    17    10    11 1   
    18    10    20 ar  
    19    11    12 2   
    20    12    13 1   
    21    12    19 1   
    22    13    14 1   
    23    13    44 1   
    24    14    15 2   
    25    14    16 1   
    26    16    17 1   
    27    16    18 1   
    28    16    45 1   
    29    17    18 1   
    30    17    46 1   
    31    17    47 1   
    32    18    48 1   
    33    18    49 1   
    34    19    20 1   
    35    20    21 ar  
    36    21    22 1   
    37    22    23 3   
    38    24    25 ar  
    39    24    50 1   
    40    25    26 1   
    41    26    27 1   
    42    26    51 1   
    43    27    28 2   
    44    27    29 1   
    45    29    30 1   
    46    29    52 1   
    47    30    31 ar  
    48    30    35 ar  
    49    31    32 ar  
    50    31    53 1   
    51    32    33 ar  
    52    32    54 1   
    53    33    34 ar  
    54    33    55 1   
    55    34    35 ar  
    56    34    36 1   
    57    35    56 1   
    58    36    37 1   
    59    36    38 1   
    60    36    39 1   
@<TRIPOS>SUBSTRUCTURE
     1 1SW         1 TEMP              0 ****  ****    0 ROOT
