@<TRIPOS>MOLECULE
1SW
   56    60     1     0     0
SMALL
No Charge or Current Charge


@<TRIPOS>ATOM
      1 F1          -5.6630     3.3450    -0.5500 f          1 1SW      -0.179000
      2 C2          -4.3390     3.5380    -0.3490 ca         1 1SW       0.129000
      3 C3          -3.8290     4.8460    -0.3850 ca         1 1SW      -0.121000
      4 C4          -2.4580     5.0690    -0.1800 ca         1 1SW      -0.102000
      5 C5          -1.6000     3.9840     0.0550 ca         1 1SW       0.094100
      6 O6          -0.2630     4.2310     0.2680 os         1 1SW      -0.238200
      7 C7           0.7340     3.3840    -0.1700 ca         1 1SW       0.180100
      8 C8           0.6640     2.8170    -1.4620 ca         1 1SW      -0.180000
      9 C9           1.6830     1.9570    -1.9180 ca         1 1SW      -0.002000
     10 C10          2.7760     1.6680    -1.0840 ca         1 1SW       0.090400
     11 N11          3.8230     0.8300    -1.4580 nc         1 1SW      -0.542100
     12 C12          4.6810     0.7860    -0.4300 cd         1 1SW       0.481800
     13 N13          5.8420     0.0530    -0.4300 ns         1 1SW      -0.413400
     14 C14          6.3600    -0.7500    -1.4160 c          1 1SW       0.641100
     15 O15          5.8490    -0.9390    -2.5100 o          1 1SW      -0.520100
     16 C16          7.6680    -1.3930    -1.0230 cx         1 1SW      -0.257700
     17 C17          7.8740    -2.8700    -1.3030 cx         1 1SW      -0.091400
     18 C18          7.6790    -2.3950     0.1170 cx         1 1SW      -0.091400
     19 S19          4.2910     1.7370     1.0290 ss         1 1SW       0.005800
     20 C20          2.8400     2.2370     0.1760 ca         1 1SW      -0.135000
     21 C21          1.8390     3.1020     0.6630 ca         1 1SW      -0.021000
     22 C22          1.9320     3.6780     1.9780 cg         1 1SW       0.338000
     23 N23          2.0180     4.1390     3.0480 n1         1 1SW      -0.446000
     24 C24         -2.1150     2.6710     0.1060 ca         1 1SW      -0.094000
     25 C25         -3.4930     2.4350    -0.1060 ca         1 1SW      -0.046000
     26 N26         -4.0800     1.1340    -0.0750 ns         1 1SW      -0.166000
     27 C27         -3.5340    -0.1360     0.0470 c          1 1SW       0.668100
     28 O28         -2.3340    -0.3630     0.1420 o          1 1SW      -0.593100
     29 N29         -4.5170    -1.1160     0.0400 ns         1 1SW      -0.161000
     30 C30         -4.4590    -2.5350     0.1390 ca         1 1SW      -0.011000
     31 C31         -5.6740    -3.2380     0.0580 ca         1 1SW      -0.141000
     32 C32         -5.6980    -4.6380     0.1530 ca         1 1SW      -0.087000
     33 C33         -4.5040    -5.3530     0.3280 ca         1 1SW      -0.086000
     34 C34         -3.2700    -4.6720     0.4050 ca         1 1SW      -0.167300
     35 C35         -3.2580    -3.2610     0.3160 ca         1 1SW      -0.085000
     36 C36         -1.9540    -5.4350     0.6060 c3         1 1SW       0.355300
     37 F37         -0.9530    -4.9250    -0.1460 f          1 1SW      -0.111667
     38 F38         -1.5470    -5.3800     1.8940 f          1 1SW      -0.111667
     39 F39         -2.0520    -6.7450     0.2800 f          1 1SW      -0.111667
     40 H1          -4.4980     5.6830    -0.5710 ha         1 1SW       0.141000
     41 H2          -2.0580     6.0800    -0.2050 ha         1 1SW       0.141000
     42 H3          -0.1750     3.0460    -2.1140 ha         1 1SW       0.139000
     43 H4           1.6270     1.5190    -2.9110 ha         1 1SW       0.143000
     44 H5           6.4160     0.0890     0.4000 hn         1 1SW       0.333500
     45 H6           8.5400    -0.7520    -1.1260 hc         1 1SW       0.086700
     46 H7           7.0620    -3.4270    -1.7650 hc         1 1SW       0.084700
     47 H8           8.8690    -3.1980    -1.5950 hc         1 1SW       0.084700
     48 H9           8.5440    -2.4060     0.7770 hc         1 1SW       0.084700
     49 H10          6.7370    -2.6420     0.6030 hc         1 1SW       0.084700
     50 H11         -1.4330     1.8550     0.3190 ha         1 1SW       0.158000
     51 H12         -5.0880     1.1450    -0.1600 hn         1 1SW       0.161000
     52 H13         -5.4580    -0.7570    -0.0530 hn         1 1SW       0.152000
     53 H14         -6.6090    -2.6980    -0.0770 ha         1 1SW       0.114000
     54 H15         -6.6450    -5.1700     0.0930 ha         1 1SW       0.122000
     55 H16         -4.5460    -6.4380     0.4060 ha         1 1SW       0.136000
     56 H17         -2.3050    -2.7470     0.3920 ha         1 1SW       0.160000
@<TRIPOS>BOND
     1     1     2 1   
     2     2     3 ar  
     3     2    25 ar  
     4     3     4 ar  
     5     3    40 1   
     6     4     5 ar  
     7     4    41 1   
     8     5     6 1   
     9     5    24 ar  
    10     6     7 1   
    11     7     8 ar  
    12     7    21 ar  
    13     8     9 ar  
    14     8    42 1   
    15     9    10 ar  
    16     9    43 1   
    17    10    11 1   
    18    10    20 ar  
    19    11    12 2   
    20    12    13 1   
    21    12    19 1   
    22    13    14 1   
    23    13    44 1   
    24    14    15 2   
    25    14    16 1   
    26    16    17 1   
    27    16    18 1   
    28    16    45 1   
    29    17    18 1   
    30    17    46 1   
    31    17    47 1   
    32    18    48 1   
    33    18    49 1   
    34    19    20 1   
    35    20    21 ar  
    36    21    22 1   
    37    22    23 3   
    38    24    25 ar  
    39    24    50 1   
    40    25    26 1   
    41    26    27 1   
    42    26    51 1   
    43    27    28 2   
    44    27    29 1   
    45    29    30 1   
    46    29    52 1   
    47    30    31 ar  
    48    30    35 ar  
    49    31    32 ar  
    50    31    53 1   
    51    32    33 ar  
    52    32    54 1   
    53    33    34 ar  
    54    33    55 1   
    55    34    35 ar  
    56    34    36 1   
    57    35    56 1   
    58    36    37 1   
    59    36    38 1   
    60    36    39 1   
@<TRIPOS>SUBSTRUCTURE
     1 1SW         1 TEMP              0 ****  ****    0 ROOT
