@<TRIPOS>MOLECULE
1SX
   39    41     1     0     0
SMALL
abcg2


@<TRIPOS>ATOM
      1 C2           4.7400    -1.9620     0.8960 c5         1 1SX       0.017600
      2 C12          2.3680     0.5420    -0.4080 cc         1 1SX       0.545400
      3 C15          0.0290     1.2300    -0.3110 c          1 1SX       0.628700
      4 C17         -1.3530     0.6890    -0.2270 ca         1 1SX      -0.161600
      5 C18         -2.3630     1.5320     0.2360 ca         1 1SX      -0.069000
      6 C20         -3.6670     1.0840     0.3180 ca         1 1SX      -0.119000
      7 C22         -4.0240    -0.2110    -0.0730 ca         1 1SX      -0.034300
      8 C23         -3.0110    -1.0360    -0.5510 ca         1 1SX      -0.119000
      9 C25         -1.6960    -0.5990    -0.6270 ca         1 1SX      -0.069000
     10 C27         -5.4780    -0.6540     0.0280 c3         1 1SX      -0.004700
     11 C28         -5.6800    -2.1040    -0.4100 c3         1 1SX      -0.083767
     12 S1           5.8360    -0.8540    -0.0790 ss         1 1SX      -0.285300
     13 C5           3.3210    -1.7720     0.3570 c5         1 1SX       0.083600
     14 N8           3.2930    -0.3870    -0.0680 na         1 1SX      -0.428000
     15 C9           4.4770     0.1970    -0.3620 cc         1 1SX       0.467800
     16 N10          4.3110     1.3940    -0.8190 nd         1 1SX      -0.302000
     17 N11          2.9560     1.6170    -0.8540 nd         1 1SX      -0.351000
     18 N13          1.0240     0.2870    -0.2710 ns         1 1SX      -0.491400
     19 O16          0.2580     2.4170    -0.3960 o          1 1SX      -0.514100
     20 C32         -5.9440    -0.5150     1.4840 c3         1 1SX      -0.083767
     21 C36         -6.3360     0.2490    -0.8690 c3         1 1SX      -0.083767
     22 H1           5.0820    -2.9870     0.7810 h1         1 1SX       0.088200
     23 H2           4.8050    -1.6780     1.9450 h1         1 1SX       0.088200
     24 H3          -2.1250     2.5410     0.5460 ha         1 1SX       0.122500
     25 H4          -4.4210     1.7640     0.6940 ha         1 1SX       0.119000
     26 H5          -3.2310    -2.0400    -0.8840 ha         1 1SX       0.119000
     27 H6          -0.9560    -1.2770    -1.0340 ha         1 1SX       0.122500
     28 H7          -5.4070    -2.2600    -1.4550 hc         1 1SX       0.037700
     29 H8          -5.1040    -2.8040     0.1970 hc         1 1SX       0.037700
     30 H9          -6.7330    -2.3730    -0.3060 hc         1 1SX       0.037700
     31 H10          3.1200    -2.4250    -0.4930 h1         1 1SX       0.068200
     32 H11          2.5850    -1.9600     1.1360 h1         1 1SX       0.068200
     33 H12          0.7680    -0.6650    -0.0580 hn         1 1SX       0.324500
     34 H13         -6.9880    -0.8200     1.5760 hc         1 1SX       0.037700
     35 H14         -5.3500    -1.1430     2.1510 hc         1 1SX       0.037700
     36 H15         -5.8710     0.5130     1.8400 hc         1 1SX       0.037700
     37 H16         -6.0430     0.1590    -1.9170 hc         1 1SX       0.037700
     38 H17         -7.3880    -0.0340    -0.7910 hc         1 1SX       0.037700
     39 H18         -6.2550     1.2990    -0.5880 hc         1 1SX       0.037700
@<TRIPOS>BOND
     1     1    12 1   
     2     1    13 1   
     3     1    22 1   
     4     1    23 1   
     5     2    14 1   
     6     2    17 2   
     7     2    18 1   
     8     3     4 1   
     9     3    18 1   
    10     3    19 2   
    11     4     5 ar  
    12     4     9 ar  
    13     5     6 ar  
    14     5    24 1   
    15     6     7 ar  
    16     6    25 1   
    17     7     8 ar  
    18     7    10 1   
    19     8     9 ar  
    20     8    26 1   
    21     9    27 1   
    22    10    11 1   
    23    10    20 1   
    24    10    21 1   
    25    11    28 1   
    26    11    29 1   
    27    11    30 1   
    28    12    15 1   
    29    13    14 1   
    30    13    31 1   
    31    13    32 1   
    32    14    15 1   
    33    15    16 2   
    34    16    17 1   
    35    18    33 1   
    36    20    34 1   
    37    20    35 1   
    38    20    36 1   
    39    21    37 1   
    40    21    38 1   
    41    21    39 1   
@<TRIPOS>SUBSTRUCTURE
     1 1SX         1 TEMP              0 ****  ****    0 ROOT
