@<TRIPOS>MOLECULE
1SX
   39    41     1     0     0
SMALL
No Charge or Current Charge


@<TRIPOS>ATOM
      1 C2           4.7850    -2.2800     0.0040 c5         1 1SX       0.017600
      2 C12          2.4370     0.6440     0.0590 cc         1 1SX       0.545400
      3 C15          0.0680     1.3500     0.0420 c          1 1SX       0.628700
      4 C17         -1.3440     0.7910     0.0370 ca         1 1SX      -0.161600
      5 C18         -2.4400     1.6800     0.0280 ca         1 1SX      -0.069000
      6 C20         -3.7600     1.2000     0.0230 ca         1 1SX      -0.119000
      7 C22         -4.0400    -0.1840     0.0270 ca         1 1SX      -0.034300
      8 C23         -2.9390    -1.0730     0.0350 ca         1 1SX      -0.119000
      9 C25         -1.6160    -0.5970     0.0400 ca         1 1SX      -0.069000
     10 C27         -5.5150    -0.6690     0.0210 c3         1 1SX      -0.004700
     11 C28         -5.6480    -2.2180     0.0250 c3         1 1SX      -0.083767
     12 S1           5.9020    -0.7750    -0.2900 ss         1 1SX      -0.285300
     13 C5           3.3080    -1.7820    -0.1330 c5         1 1SX       0.083600
     14 N8           3.3660    -0.3550     0.0590 na         1 1SX      -0.428000
     15 C9           4.5450     0.2630     0.0790 cc         1 1SX       0.467800
     16 N10          4.4370     1.5680    -0.0220 nd         1 1SX      -0.302000
     17 N11          3.0720     1.8150     0.0320 nd         1 1SX      -0.351000
     18 N13          1.0840     0.4240     0.0540 ns         1 1SX      -0.491400
     19 O16          0.2770     2.5540     0.0350 o          1 1SX      -0.514100
     20 C32         -6.2380    -0.1250     1.2830 c3         1 1SX      -0.083767
     21 C36         -6.2260    -0.1330    -1.2510 c3         1 1SX      -0.083767
     22 H1           5.0220    -3.0910    -0.6970 h1         1 1SX       0.088200
     23 H2           4.9650    -2.6480     1.0220 h1         1 1SX       0.088200
     24 H3          -2.2760     2.7560     0.0260 ha         1 1SX       0.122500
     25 H4          -4.5710     1.9240     0.0170 ha         1 1SX       0.119000
     26 H5          -3.0820    -2.1500     0.0380 ha         1 1SX       0.119000
     27 H6          -0.8150    -1.3320     0.0460 ha         1 1SX       0.122500
     28 H7          -5.1770    -2.6590    -0.8620 hc         1 1SX       0.037700
     29 H8          -5.1850    -2.6530     0.9200 hc         1 1SX       0.037700
     30 H9          -6.7030    -2.5210     0.0210 hc         1 1SX       0.037700
     31 H10          2.9140    -2.0020    -1.1350 h1         1 1SX       0.068200
     32 H11          2.6490    -2.2610     0.6030 h1         1 1SX       0.068200
     33 H12          0.7880    -0.5370     0.0630 hn         1 1SX       0.324500
     34 H13         -7.2760    -0.4790     1.3240 hc         1 1SX       0.037700
     35 H14         -5.7300    -0.4610     2.1950 hc         1 1SX       0.037700
     36 H15         -6.2640     0.9700     1.2950 hc         1 1SX       0.037700
     37 H16         -5.7080    -0.4750    -2.1560 hc         1 1SX       0.037700
     38 H17         -7.2630    -0.4880    -1.3010 hc         1 1SX       0.037700
     39 H18         -6.2510     0.9620    -1.2700 hc         1 1SX       0.037700
@<TRIPOS>BOND
     1     1    12 1   
     2     1    13 1   
     3     1    22 1   
     4     1    23 1   
     5     2    14 1   
     6     2    17 2   
     7     2    18 1   
     8     3     4 1   
     9     3    18 1   
    10     3    19 2   
    11     4     5 ar  
    12     4     9 ar  
    13     5     6 ar  
    14     5    24 1   
    15     6     7 ar  
    16     6    25 1   
    17     7     8 ar  
    18     7    10 1   
    19     8     9 ar  
    20     8    26 1   
    21     9    27 1   
    22    10    11 1   
    23    10    20 1   
    24    10    21 1   
    25    11    28 1   
    26    11    29 1   
    27    11    30 1   
    28    12    15 1   
    29    13    14 1   
    30    13    31 1   
    31    13    32 1   
    32    14    15 1   
    33    15    16 2   
    34    16    17 1   
    35    18    33 1   
    36    20    34 1   
    37    20    35 1   
    38    20    36 1   
    39    21    37 1   
    40    21    38 1   
    41    21    39 1   
@<TRIPOS>SUBSTRUCTURE
     1 1SX         1 TEMP              0 ****  ****    0 ROOT
