@<TRIPOS>MOLECULE
1SZ
  160   167     1     0     0
SMALL
abcg2


@<TRIPOS>ATOM
      1 C1          48.3320     0.5200    86.7600 cc         1 1SZ       0.226900
      2 N1          47.6760     1.1170    87.7970 nc         1 1SZ      -0.682000
      3 C2          49.1750    -0.4520    87.2420 cd         1 1SZ      -0.210000
      4 C3          48.1260     0.5320    88.9010 cd         1 1SZ       0.347000
      5 N2          49.0670    -0.4140    88.6070 na         1 1SZ      -0.116500
      6 C4          49.7220    -1.3780    89.4870 c3         1 1SZ       0.040900
      7 C5          47.7180     0.9320    90.2640 c          1 1SZ       0.543600
      8 O1          48.1640     0.4060    91.2850 o          1 1SZ      -0.610100
      9 N3          46.8660     1.9840    90.2810 ns         1 1SZ      -0.359100
     10 C6          46.3150     2.5710    91.4200 cc         1 1SZ      -0.034400
     11 C7          45.3840     3.6250    91.4120 cc         1 1SZ      -0.169000
     12 C8          46.5380     2.2290    92.7470 cd         1 1SZ      -0.169000
     13 C9          45.1110     3.9540    92.7380 cd         1 1SZ      -0.221600
     14 N4          45.8140     3.0670    93.5350 na         1 1SZ       0.072000
     15 C10         45.8370     2.9410    94.9900 c3         1 1SZ       0.044900
     16 C11         44.1990     4.9660    93.2710 c          1 1SZ       0.651700
     17 O2          44.1370     5.2840    94.4630 o          1 1SZ      -0.611100
     18 N5          43.4790     5.6510    92.3290 ns         1 1SZ      -0.456400
     19 C12         42.6070     6.6940    92.6030 cc         1 1SZ       0.364900
     20 N6          41.8410     7.2120    91.6070 nc         1 1SZ      -0.717000
     21 C13         42.2390     7.2470    93.8150 cd         1 1SZ      -0.215000
     22 C14         41.0840     8.1510    92.1730 cd         1 1SZ       0.361000
     23 N7          41.2860     8.1880    93.5200 na         1 1SZ      -0.119500
     24 C15         40.7240     9.0690    94.5470 c3         1 1SZ       0.051900
     25 C16         40.1310     9.0050    91.4370 c          1 1SZ       0.542600
     26 O3          39.4550     9.8780    91.9870 o          1 1SZ      -0.620100
     27 N8          40.1250     8.7890    90.1000 ns         1 1SZ      -0.347100
     28 C17         39.2490     9.3850    89.1890 cc         1 1SZ      -0.025400
     29 C18         39.0350     8.9310    87.8710 cc         1 1SZ      -0.170000
     30 C19         38.3000    10.3670    89.4390 cd         1 1SZ      -0.177000
     31 C20         38.0820     9.7580    87.2890 cd         1 1SZ      -0.216600
     32 N9          37.5900    10.5790    88.2910 na         1 1SZ       0.065000
     33 C21         36.6390    11.6780    88.1890 c3         1 1SZ       0.044900
     34 C22         37.5090     9.6680    85.9280 c          1 1SZ       0.648700
     35 O4          36.6290    10.4330    85.5080 o          1 1SZ      -0.625100
     36 N10         37.9530     8.6300    85.1840 ns         1 1SZ      -0.505900
     37 C23         37.6200     8.4340    83.7750 c3         1 1SZ       0.100000
     38 C24         38.7570     7.7300    83.0220 c3         1 1SZ      -0.083400
     39 C25         39.8490     8.6530    82.4220 c3         1 1SZ      -0.161400
     40 C26         40.1560     9.8940    83.2230 c          1 1SZ       0.600100
     41 O5          39.7840    11.0100    82.8620 o          1 1SZ      -0.587100
     42 N11         40.8390     9.6890    84.3750 ns         1 1SZ      -0.380100
     43 C27         41.0210    10.6200    85.4010 cc         1 1SZ      -0.025400
     44 C28         41.7500    10.3560    86.5730 cc         1 1SZ      -0.184000
     45 C29         40.5800    11.9340    85.4720 cd         1 1SZ      -0.172000
     46 C30         41.6510    11.4800    87.3880 cd         1 1SZ      -0.213600
     47 N12         40.9490    12.4400    86.6870 na         1 1SZ       0.072000
     48 C31         40.4520    13.7320    87.1370 c3         1 1SZ       0.043900
     49 C32         42.2040    11.6690    88.7340 c          1 1SZ       0.648700
     50 O6          42.0340    12.6830    89.4180 o          1 1SZ      -0.615100
     51 N13         42.8690    10.5810    89.2130 ns         1 1SZ      -0.370100
     52 C33         43.3610    10.4050    90.5040 cc         1 1SZ      -0.020400
     53 C34         44.3390     9.4480    90.8340 cc         1 1SZ      -0.178000
     54 C35         43.0640    11.1110    91.6570 cd         1 1SZ      -0.174000
     55 C36         44.5730     9.5410    92.2020 cd         1 1SZ      -0.217600
     56 N14         43.8020    10.5810    92.6810 na         1 1SZ       0.063000
     57 C37         43.6960    11.1050    94.0380 c3         1 1SZ       0.042900
     58 C38         45.5280     8.7570    93.0060 c          1 1SZ       0.647700
     59 O7          45.7290     8.9260    94.2140 o          1 1SZ      -0.619100
     60 N15         46.2060     7.8210    92.2850 ns         1 1SZ      -0.366100
     61 C39         47.0920     6.8560    92.7620 cc         1 1SZ      -0.020400
     62 C40         47.7090     5.9090    91.9250 cc         1 1SZ      -0.176000
     63 C41         47.5560     6.6350    94.0510 cd         1 1SZ      -0.170000
     64 C42         48.5720     5.1510    92.7070 cd         1 1SZ      -0.221600
     65 N16         48.4490     5.6020    94.0070 na         1 1SZ       0.060000
     66 C43         49.0720     5.0730    95.2200 c3         1 1SZ       0.048900
     67 C44         49.4490     4.0510    92.2760 c          1 1SZ       0.647700
     68 O8          49.9800     3.2390    93.0380 o          1 1SZ      -0.613100
     69 N17         49.6410     4.0040    90.9230 ns         1 1SZ      -0.361100
     70 C45         50.3880     3.0540    90.2190 cc         1 1SZ      -0.026400
     71 C46         50.5140     3.0790    88.8130 cc         1 1SZ      -0.171000
     72 C47         51.2560     2.0790    90.6840 cd         1 1SZ      -0.163000
     73 C48         51.3800     2.0600    88.4400 cd         1 1SZ      -0.229600
     74 N18         51.8710     1.5000    89.6070 na         1 1SZ       0.055000
     75 C49         52.7080     0.3120    89.7510 c3         1 1SZ       0.037900
     76 C50         51.8600     1.7340    87.0900 c          1 1SZ       0.643700
     77 O9          52.6970     0.8530    86.8510 o          1 1SZ      -0.623100
     78 N19         51.2500     2.4090    86.0810 ns         1 1SZ      -0.506900
     79 C51         51.3110     1.9770    84.7070 c3         1 1SZ       0.117000
     80 C52         52.4290     2.7020    83.9080 c3         1 1SZ      -0.195400
     81 C53         52.5510     2.1780    82.4950 c          1 1SZ       0.612100
     82 O10         53.3370     1.2760    82.2230 o          1 1SZ      -0.560100
     83 N20         51.7860     2.7970    81.5350 ns         1 1SZ      -0.562900
     84 C54         52.3060     3.1590    80.2310 c3         1 1SZ       0.108000
     85 C55         51.1720     3.5740    79.2690 c3         1 1SZ      -0.097400
     86 C56         50.5330     2.3720    78.5730 c3         1 1SZ       0.165800
     87 N21         51.2790     1.7720    77.4480 n3         1 1SZ      -0.721600
     88 C57         50.3510     1.1290    76.5350 c3         1 1SZ       0.153100
     89 C58         52.1600     2.6800    76.7170 c3         1 1SZ       0.153100
     90 H2          49.8160    -1.1620    86.7490 h4         1 1SZ       0.167000
     91 H3          49.4220    -1.1880    90.5080 h1         1 1SZ       0.069033
     92 H4          49.4570    -2.3930    89.1900 h1         1 1SZ       0.069033
     93 H5          50.8040    -1.2610    89.4130 h1         1 1SZ       0.069033
     94 H1          48.1660     0.7800    85.7270 h4         1 1SZ       0.037100
     95 H6          46.5970     2.3680    89.3850 hn         1 1SZ       0.346500
     96 H7          45.1120     4.2190    90.5530 ha         1 1SZ       0.126000
     97 H8          47.1840     1.4810    93.1610 h4         1 1SZ       0.184000
     98 H10         45.4330     1.9680    95.2730 h1         1 1SZ       0.067367
     99 H11         46.8560     3.0570    95.3560 h1         1 1SZ       0.067367
    100 H9          45.1910     3.6960    95.4190 h1         1 1SZ       0.067367
    101 H12         43.5010     5.3400    91.3710 hn         1 1SZ       0.332500
    102 H13         42.6160     7.0920    94.8060 h4         1 1SZ       0.192000
    103 H14         39.9950     9.7220    94.0900 h1         1 1SZ       0.069033
    104 H15         40.2270     8.4440    95.2920 h1         1 1SZ       0.069033
    105 H16         41.5340     9.6000    95.0390 h1         1 1SZ       0.069033
    106 H17         40.6920     8.0160    89.7750 hn         1 1SZ       0.344500
    107 H18         39.6060     8.1670    87.3690 ha         1 1SZ       0.122000
    108 H19         38.2210    11.0130    90.2930 h4         1 1SZ       0.179000
    109 H20         36.1630    11.6690    87.2190 h1         1 1SZ       0.065033
    110 H21         35.8610    11.5410    88.9440 h1         1 1SZ       0.065033
    111 H22         37.1220    12.6330    88.3870 h1         1 1SZ       0.065033
    112 H23         38.5780     7.9530    85.5930 hn         1 1SZ       0.310500
    113 H24         36.6990     7.8510    83.6970 h1         1 1SZ       0.066700
    114 H25         37.4330     9.4160    83.3400 h1         1 1SZ       0.066700
    115 H26         39.2180     7.0100    83.7030 hc         1 1SZ       0.047200
    116 H27         38.3350     7.1520    82.2000 hc         1 1SZ       0.047200
    117 H28         40.7620     8.0630    82.2980 hc         1 1SZ       0.066200
    118 H29         39.5470     8.9700    81.4260 hc         1 1SZ       0.066200
    119 H30         41.2190     8.7680    84.5260 hn         1 1SZ       0.313500
    120 H31         42.3460     9.4760    86.7530 ha         1 1SZ       0.122000
    121 H32         39.8450    12.4170    84.8540 h4         1 1SZ       0.181000
    122 H33         40.8520    13.9530    88.1180 h1         1 1SZ       0.065700
    123 H34         40.7810    14.5140    86.4520 h1         1 1SZ       0.065700
    124 H35         39.3640    13.7350    87.1860 h1         1 1SZ       0.065700
    125 H36         43.1100     9.8570    88.5560 hn         1 1SZ       0.319500
    126 H37         44.7700     8.7720    90.1150 ha         1 1SZ       0.124000
    127 H38         42.3350    11.8870    91.8060 h4         1 1SZ       0.179000
    128 H39         44.3830    10.5560    94.6740 h1         1 1SZ       0.065700
    129 H40         43.9960    12.1520    94.0560 h1         1 1SZ       0.065700
    130 H41         42.6890    10.9630    94.4230 h1         1 1SZ       0.065700
    131 H42         45.9450     7.7460    91.3160 hn         1 1SZ       0.319500
    132 H43         47.5850     5.8580    90.8560 ha         1 1SZ       0.123000
    133 H44         47.3530     7.2080    94.9360 h4         1 1SZ       0.181000
    134 H45         49.7650     4.2870    94.9450 h1         1 1SZ       0.064700
    135 H46         49.6140     5.8800    95.7150 h1         1 1SZ       0.064700
    136 H47         48.2980     4.6910    95.8850 h1         1 1SZ       0.064700
    137 H48         48.9730     4.5000    90.3550 hn         1 1SZ       0.317500
    138 H49         49.9750     3.7420    88.1550 ha         1 1SZ       0.127000
    139 H50         51.4330     1.7050    91.6750 h4         1 1SZ       0.178000
    140 H51         53.0360     0.0040    88.7660 h1         1 1SZ       0.067367
    141 H52         53.6010     0.5660    90.3240 h1         1 1SZ       0.067367
    142 H53         52.1400    -0.4890    90.2270 h1         1 1SZ       0.067367
    143 H54         50.7150     3.2290    86.3090 hn         1 1SZ       0.319500
    144 H56         50.3500     2.1970    84.2410 h1         1 1SZ       0.058200
    145 H55         51.5120     0.9080    84.6830 h1         1 1SZ       0.058200
    146 H57         52.2120     3.7690    83.9140 hc         1 1SZ       0.075700
    147 H58         53.3700     2.5090    84.4210 hc         1 1SZ       0.075700
    148 H59         53.0540     3.9570    80.2930 h1         1 1SZ       0.051200
    149 H60         50.3960     4.0670    79.8570 hc         1 1SZ       0.050200
    150 H61         51.6040     4.2670    78.5500 hc         1 1SZ       0.050200
    151 H62         50.3480     1.5940    79.3200 h1         1 1SZ       0.035700
    152 H63         49.5480     2.7030    78.2060 h1         1 1SZ       0.035700
    153 H65         50.8830     0.6750    75.6980 h1         1 1SZ       0.030367
    154 H66         49.7480     0.3880    77.0630 h1         1 1SZ       0.030367
    155 H67         49.6240     1.8490    76.1070 h1         1 1SZ       0.030367
    156 H68         52.6860     2.1080    75.9540 h1         1 1SZ       0.030367
    157 H69         51.6140     3.5230    76.2610 h1         1 1SZ       0.030367
    158 H70         52.8950     3.1180    77.3900 h1         1 1SZ       0.030367
    159 H71         50.8240     3.0050    81.7530 hn         1 1SZ       0.311500
    160 H72         52.8170     2.3020    79.7820 h1         1 1SZ       0.051200
@<TRIPOS>BOND
     1     1     2 1   
     2     1     3 2   
     3     1    94 1   
     4     2     4 2   
     5     3     5 1   
     6     3    90 1   
     7     4     5 1   
     8     4     7 1   
     9     5     6 1   
    10     6    91 1   
    11     6    92 1   
    12     6    93 1   
    13     7     8 2   
    14     7     9 1   
    15     9    10 1   
    16     9    95 1   
    17    10    11 1   
    18    10    12 2   
    19    11    13 2   
    20    11    96 1   
    21    12    14 1   
    22    12    97 1   
    23    13    14 1   
    24    13    16 1   
    25    14    15 1   
    26    15    98 1   
    27    15    99 1   
    28    15   100 1   
    29    16    17 2   
    30    16    18 1   
    31    18    19 1   
    32    18   101 1   
    33    19    20 1   
    34    19    21 2   
    35    20    22 2   
    36    21    23 1   
    37    21   102 1   
    38    22    23 1   
    39    22    25 1   
    40    23    24 1   
    41    24   103 1   
    42    24   104 1   
    43    24   105 1   
    44    25    26 2   
    45    25    27 1   
    46    27    28 1   
    47    27   106 1   
    48    28    29 1   
    49    28    30 2   
    50    29    31 2   
    51    29   107 1   
    52    30    32 1   
    53    30   108 1   
    54    31    32 1   
    55    31    34 1   
    56    32    33 1   
    57    33   109 1   
    58    33   110 1   
    59    33   111 1   
    60    34    35 2   
    61    34    36 1   
    62    36    37 1   
    63    36   112 1   
    64    37    38 1   
    65    37   113 1   
    66    37   114 1   
    67    38    39 1   
    68    38   115 1   
    69    38   116 1   
    70    39    40 1   
    71    39   117 1   
    72    39   118 1   
    73    40    41 2   
    74    40    42 1   
    75    42    43 1   
    76    42   119 1   
    77    43    44 1   
    78    43    45 2   
    79    44    46 2   
    80    44   120 1   
    81    45    47 1   
    82    45   121 1   
    83    46    47 1   
    84    46    49 1   
    85    47    48 1   
    86    48   122 1   
    87    48   123 1   
    88    48   124 1   
    89    49    50 2   
    90    49    51 1   
    91    51    52 1   
    92    51   125 1   
    93    52    53 1   
    94    52    54 2   
    95    53    55 2   
    96    53   126 1   
    97    54    56 1   
    98    54   127 1   
    99    55    56 1   
   100    55    58 1   
   101    56    57 1   
   102    57   128 1   
   103    57   129 1   
   104    57   130 1   
   105    58    59 2   
   106    58    60 1   
   107    60    61 1   
   108    60   131 1   
   109    61    62 1   
   110    61    63 2   
   111    62    64 2   
   112    62   132 1   
   113    63    65 1   
   114    63   133 1   
   115    64    65 1   
   116    64    67 1   
   117    65    66 1   
   118    66   134 1   
   119    66   135 1   
   120    66   136 1   
   121    67    68 2   
   122    67    69 1   
   123    69    70 1   
   124    69   137 1   
   125    70    71 1   
   126    70    72 2   
   127    71    73 2   
   128    71   138 1   
   129    72    74 1   
   130    72   139 1   
   131    73    74 1   
   132    73    76 1   
   133    74    75 1   
   134    75   140 1   
   135    75   141 1   
   136    75   142 1   
   137    76    77 2   
   138    76    78 1   
   139    78    79 1   
   140    78   143 1   
   141    79    80 1   
   142    79   144 1   
   143    79   145 1   
   144    80    81 1   
   145    80   146 1   
   146    80   147 1   
   147    81    82 2   
   148    81    83 1   
   149    83    84 1   
   150    83   159 1   
   151    84    85 1   
   152    84   148 1   
   153    84   160 1   
   154    85    86 1   
   155    85   149 1   
   156    85   150 1   
   157    86    87 1   
   158    86   151 1   
   159    86   152 1   
   160    87    88 1   
   161    87    89 1   
   162    88   153 1   
   163    88   154 1   
   164    88   155 1   
   165    89   156 1   
   166    89   157 1   
   167    89   158 1   
@<TRIPOS>SUBSTRUCTURE
     1 1SZ         1 TEMP              0 ****  ****    0 ROOT
