@<TRIPOS>MOLECULE
1SZ
  160   167     1     0     0
SMALL
No Charge or Current Charge


@<TRIPOS>ATOM
      1 C1          47.2730     0.1160    87.3210 cc         1 1SZ       0.226900
      2 N1          46.9230     0.8430    88.4200 nc         1 1SZ      -0.682000
      3 C2          48.1390    -0.8890    87.6450 cd         1 1SZ      -0.210000
      4 C3          47.5720     0.3000    89.4600 cd         1 1SZ       0.347000
      5 N2          48.3360    -0.7800    89.0100 na         1 1SZ      -0.116500
      6 C4          49.1870    -1.6600    89.8250 c3         1 1SZ       0.040900
      7 C5          47.4470     0.7990    90.8840 c          1 1SZ       0.543600
      8 O1          48.0010     0.2950    91.8590 o          1 1SZ      -0.610100
      9 N3          46.6050     1.9000    90.9720 ns         1 1SZ      -0.359100
     10 C6          46.2260     2.6400    92.0840 cc         1 1SZ      -0.034400
     11 C7          45.3300     3.7180    92.0490 cc         1 1SZ      -0.169000
     12 C8          46.6420     2.4560    93.3730 cd         1 1SZ      -0.169000
     13 C9          45.1700     4.2180    93.3220 cd         1 1SZ      -0.221600
     14 N4          45.9930     3.4290    94.1440 na         1 1SZ       0.072000
     15 C10         46.1480     3.5710    95.5980 c3         1 1SZ       0.044900
     16 C11         44.3010     5.3620    93.7210 c          1 1SZ       0.651700
     17 O2          44.1960     5.7610    94.8720 o          1 1SZ      -0.611100
     18 N5          43.6110     5.9090    92.6690 ns         1 1SZ      -0.456400
     19 C12         42.7380     6.9590    92.6720 cc         1 1SZ       0.364900
     20 N6          42.1070     7.2690    91.5190 nc         1 1SZ      -0.717000
     21 C13         42.3940     7.7690    93.7110 cd         1 1SZ      -0.215000
     22 C14         41.3290     8.3230    91.8120 cd         1 1SZ       0.361000
     23 N7          41.4820     8.6540    93.1640 na         1 1SZ      -0.119500
     24 C15         40.7990     9.7370    93.8900 c3         1 1SZ       0.051900
     25 C16         40.4180     9.0030    90.8100 c          1 1SZ       0.542600
     26 O3          39.6740     9.9470    91.0680 o          1 1SZ      -0.620100
     27 N8          40.5030     8.4240    89.5510 ns         1 1SZ      -0.347100
     28 C17         39.8190     8.7410    88.3840 cc         1 1SZ      -0.025400
     29 C18         39.9840     8.0760    87.1590 cc         1 1SZ      -0.170000
     30 C19         38.8850     9.7260    88.2220 cd         1 1SZ      -0.177000
     31 C20         39.1520     8.6400    86.2170 cd         1 1SZ      -0.216600
     32 N9          38.4700     9.6700    86.8860 na         1 1SZ       0.065000
     33 C21         37.4830    10.5780    86.2870 c3         1 1SZ       0.044900
     34 C22         39.0320     8.2360    84.7870 c          1 1SZ       0.648700
     35 O4          38.2500     8.7400    83.9940 o          1 1SZ      -0.625100
     36 N10         39.8920     7.2220    84.4300 ns         1 1SZ      -0.505900
     37 C23         40.0750     6.7030    83.0700 c3         1 1SZ       0.100000
     38 C24         41.5720     6.4810    82.7400 c3         1 1SZ      -0.083400
     39 C25         42.4070     7.7450    82.3670 c3         1 1SZ      -0.161400
     40 C26         41.9620     9.0270    83.0850 c          1 1SZ       0.600100
     41 O5          41.1520     9.7950    82.5850 o          1 1SZ      -0.587100
     42 N11         42.5310     9.2120    84.3320 ns         1 1SZ      -0.380100
     43 C27         42.1940    10.1360    85.3120 cc         1 1SZ      -0.025400
     44 C28         42.7190    10.1290    86.6110 cc         1 1SZ      -0.184000
     45 C29         41.2880    11.1550    85.2110 cd         1 1SZ      -0.172000
     46 C30         42.1370    11.1390    87.3440 cd         1 1SZ      -0.213600
     47 N12         41.2500    11.7810    86.4630 na         1 1SZ       0.072000
     48 C31         40.3790    12.9170    86.7940 c3         1 1SZ       0.043900
     49 C32         42.3900    11.4460    88.7820 c          1 1SZ       0.648700
     50 O6          41.8620    12.3730    89.3820 o          1 1SZ      -0.615100
     51 N13         43.2870    10.5690    89.3620 ns         1 1SZ      -0.370100
     52 C33         43.7450    10.5070    90.6680 cc         1 1SZ      -0.020400
     53 C34         44.6610     9.5530    91.1300 cc         1 1SZ      -0.178000
     54 C35         43.3960    11.3200    91.7100 cd         1 1SZ      -0.174000
     55 C36         44.8960     9.7540    92.4710 cd         1 1SZ      -0.217600
     56 N14         44.1040    10.8610    92.8280 na         1 1SZ       0.063000
     57 C37         44.0140    11.4560    94.1690 c3         1 1SZ       0.042900
     58 C38         45.8010     8.9460    93.3400 c          1 1SZ       0.647700
     59 O7          45.9730     9.1710    94.5300 o          1 1SZ      -0.619100
     60 N15         46.4300     7.9250    92.6520 ns         1 1SZ      -0.366100
     61 C39         47.3360     6.9780    93.1090 cc         1 1SZ      -0.020400
     62 C40         47.9310     6.0020    92.2970 cc         1 1SZ      -0.176000
     63 C41         47.7990     6.8280    94.3860 cd         1 1SZ      -0.170000
     64 C42         48.7790     5.2290    93.0570 cd         1 1SZ      -0.221600
     65 N16         48.6930     5.7500    94.3610 na         1 1SZ       0.060000
     66 C43         49.4290     5.2580    95.5350 c3         1 1SZ       0.048900
     67 C44         49.6100     4.0880    92.5740 c          1 1SZ       0.647700
     68 O8          50.3600     3.4470    93.2990 o          1 1SZ      -0.613100
     69 N17         49.4580     3.8440    91.2220 ns         1 1SZ      -0.361100
     70 C45         50.0940     2.9100    90.4160 cc         1 1SZ      -0.026400
     71 C46         49.8520     2.7560    89.0430 cc         1 1SZ      -0.171000
     72 C47         51.0480     2.0060    90.7950 cd         1 1SZ      -0.163000
     73 C48         50.6560     1.7550    88.5470 cd         1 1SZ      -0.229600
     74 N18         51.4050     1.2940    89.6440 na         1 1SZ       0.055000
     75 C49         52.4280     0.2390    89.6050 c3         1 1SZ       0.037900
     76 C50         50.7050     1.2810    87.1350 c          1 1SZ       0.643700
     77 O9          51.4440     0.3940    86.7340 o          1 1SZ      -0.623100
     78 N19         49.8270     1.9370    86.3060 ns         1 1SZ      -0.506900
     79 C51         49.6600     1.6680    84.8780 c3         1 1SZ       0.117000
     80 C52         50.7650     2.3320    84.0380 c3         1 1SZ      -0.195400
     81 C53         50.5390     2.0650    82.5540 c          1 1SZ       0.612100
     82 O10         50.7560     0.9780    82.0410 o          1 1SZ      -0.560100
     83 N20         50.1050     3.1480    81.8260 ns         1 1SZ      -0.562900
     84 C54         49.8340     3.1200    80.3880 c3         1 1SZ       0.108000
     85 C55         49.1090     4.3970    79.9230 c3         1 1SZ      -0.097400
     86 C56         48.7520     4.3860    78.4180 c3         1 1SZ       0.165800
     87 N21         49.9010     4.2050    77.4940 n3         1 1SZ      -0.721600
     88 C57         49.4610     3.9690    76.1000 c3         1 1SZ       0.153100
     89 C58         50.9150     5.2840    77.5760 c3         1 1SZ       0.153100
     90 H2          48.6100    -1.6410    87.0240 h4         1 1SZ       0.167000
     91 H3          49.8530    -1.0560    90.4540 h1         1 1SZ       0.069033
     92 H4          48.5580    -2.2900    90.4660 h1         1 1SZ       0.069033
     93 H5          49.7940    -2.3000    89.1740 h1         1 1SZ       0.069033
     94 H1          46.8730     0.3680    86.3470 h4         1 1SZ       0.037100
     95 H6          46.2230     2.1650    90.0690 hn         1 1SZ       0.346500
     96 H7          44.8540     4.0720    91.1400 ha         1 1SZ       0.126000
     97 H8          47.3260     1.7360    93.8020 h4         1 1SZ       0.184000
     98 H10         45.1970     3.3380    96.0910 h1         1 1SZ       0.067367
     99 H11         46.9210     2.8840    95.9610 h1         1 1SZ       0.067367
    100 H9          46.4390     4.6000    95.8390 h1         1 1SZ       0.067367
    101 H12         43.7630     5.4530    91.7850 hn         1 1SZ       0.332500
    102 H13         42.7150     7.7860    94.7440 h4         1 1SZ       0.192000
    103 H14         40.9980    10.6970    93.3970 h1         1 1SZ       0.069033
    104 H15         39.7180     9.5510    93.8990 h1         1 1SZ       0.069033
    105 H16         41.1640     9.7830    94.9240 h1         1 1SZ       0.069033
    106 H17         41.1650     7.6540    89.5240 hn         1 1SZ       0.344500
    107 H18         40.6740     7.2520    87.0120 ha         1 1SZ       0.122000
    108 H19         38.4880    10.4490    88.9240 h4         1 1SZ       0.179000
    109 H20         36.6240     9.9990    85.9270 h1         1 1SZ       0.065033
    110 H21         37.1410    11.3050    87.0340 h1         1 1SZ       0.065033
    111 H22         37.9410    11.1140    85.4470 h1         1 1SZ       0.065033
    112 H23         40.4830     6.8640    85.1680 hn         1 1SZ       0.310500
    113 H24         39.5480     5.7420    83.0030 h1         1 1SZ       0.066700
    114 H25         39.6280     7.3820    82.3310 h1         1 1SZ       0.066700
    115 H26         42.0430     5.9790    83.5940 hc         1 1SZ       0.047200
    116 H27         41.6410     5.7730    81.9050 hc         1 1SZ       0.047200
    117 H28         43.4460     7.5200    82.6350 hc         1 1SZ       0.066200
    118 H29         42.3230     7.9090    81.2860 hc         1 1SZ       0.066200
    119 H30         43.2100     8.5040    84.5790 hn         1 1SZ       0.313500
    120 H31         43.4520     9.4050    86.9540 ha         1 1SZ       0.122000
    121 H32         40.6690    11.4740    84.3830 h4         1 1SZ       0.181000
    122 H33         40.9940    13.7740    87.0950 h1         1 1SZ       0.065700
    123 H34         39.7770    13.1930    85.9210 h1         1 1SZ       0.065700
    124 H35         39.7120    12.6380    87.6190 h1         1 1SZ       0.065700
    125 H36         43.6340     9.8760    88.7150 hn         1 1SZ       0.319500
    126 H37         45.0890     8.7820    90.4960 ha         1 1SZ       0.124000
    127 H38         42.7190    12.1640    91.7540 h4         1 1SZ       0.179000
    128 H39         43.6780    10.6970    94.8850 h1         1 1SZ       0.065700
    129 H40         44.9990    11.8310    94.4700 h1         1 1SZ       0.065700
    130 H41         43.2980    12.2870    94.1610 h1         1 1SZ       0.065700
    131 H42         46.1810     7.8940    91.6740 hn         1 1SZ       0.319500
    132 H43         47.7270     5.9030    91.2350 ha         1 1SZ       0.123000
    133 H44         47.5780     7.3810    95.2900 h4         1 1SZ       0.181000
    134 H45         50.5060     5.3870    95.3720 h1         1 1SZ       0.064700
    135 H46         49.1290     5.8210    96.4270 h1         1 1SZ       0.064700
    136 H47         49.2080     4.1950    95.6880 h1         1 1SZ       0.064700
    137 H48         48.7830     4.4550    90.7840 hn         1 1SZ       0.317500
    138 H49         49.1340     3.3530    88.4900 ha         1 1SZ       0.127000
    139 H50         51.5010     1.8160    91.7610 h4         1 1SZ       0.178000
    140 H51         51.9960    -0.6800    89.1920 h1         1 1SZ       0.067367
    141 H52         53.2630     0.5640    88.9740 h1         1 1SZ       0.067367
    142 H53         52.7970     0.0390    90.6180 h1         1 1SZ       0.067367
    143 H54         49.2440     2.6400    86.7390 hn         1 1SZ       0.319500
    144 H56         48.6790     2.0490    84.5640 h1         1 1SZ       0.058200
    145 H55         49.6670     0.5810    84.7140 h1         1 1SZ       0.058200
    146 H57         50.7550     3.4100    84.2360 hc         1 1SZ       0.075700
    147 H58         51.7310     1.9060    84.3290 hc         1 1SZ       0.075700
    148 H59         50.7870     3.0160    79.8510 h1         1 1SZ       0.051200
    149 H60         48.1800     4.5060    80.4950 hc         1 1SZ       0.050200
    150 H61         49.7220     5.2760    80.1560 hc         1 1SZ       0.050200
    151 H62         48.0300     3.5730    78.2610 h1         1 1SZ       0.035700
    152 H63         48.2290     5.3230    78.1810 h1         1 1SZ       0.035700
    153 H65         50.3210     3.7550    75.4520 h1         1 1SZ       0.030367
    154 H66         48.7780     3.1110    76.0480 h1         1 1SZ       0.030367
    155 H67         48.9390     4.8490    75.7000 h1         1 1SZ       0.030367
    156 H68         51.7370     5.0970    76.8720 h1         1 1SZ       0.030367
    157 H69         50.4700     6.2590    77.3330 h1         1 1SZ       0.030367
    158 H70         51.3510     5.3440    78.5810 h1         1 1SZ       0.030367
    159 H71         49.9650     4.0150    82.3300 hn         1 1SZ       0.311500
    160 H72         49.2120     2.2440    80.1570 h1         1 1SZ       0.051200
@<TRIPOS>BOND
     1     1     2 1   
     2     1     3 2   
     3     1    94 1   
     4     2     4 2   
     5     3     5 1   
     6     3    90 1   
     7     4     5 1   
     8     4     7 1   
     9     5     6 1   
    10     6    91 1   
    11     6    92 1   
    12     6    93 1   
    13     7     8 2   
    14     7     9 1   
    15     9    10 1   
    16     9    95 1   
    17    10    11 1   
    18    10    12 2   
    19    11    13 2   
    20    11    96 1   
    21    12    14 1   
    22    12    97 1   
    23    13    14 1   
    24    13    16 1   
    25    14    15 1   
    26    15    98 1   
    27    15    99 1   
    28    15   100 1   
    29    16    17 2   
    30    16    18 1   
    31    18    19 1   
    32    18   101 1   
    33    19    20 1   
    34    19    21 2   
    35    20    22 2   
    36    21    23 1   
    37    21   102 1   
    38    22    23 1   
    39    22    25 1   
    40    23    24 1   
    41    24   103 1   
    42    24   104 1   
    43    24   105 1   
    44    25    26 2   
    45    25    27 1   
    46    27    28 1   
    47    27   106 1   
    48    28    29 1   
    49    28    30 2   
    50    29    31 2   
    51    29   107 1   
    52    30    32 1   
    53    30   108 1   
    54    31    32 1   
    55    31    34 1   
    56    32    33 1   
    57    33   109 1   
    58    33   110 1   
    59    33   111 1   
    60    34    35 2   
    61    34    36 1   
    62    36    37 1   
    63    36   112 1   
    64    37    38 1   
    65    37   113 1   
    66    37   114 1   
    67    38    39 1   
    68    38   115 1   
    69    38   116 1   
    70    39    40 1   
    71    39   117 1   
    72    39   118 1   
    73    40    41 2   
    74    40    42 1   
    75    42    43 1   
    76    42   119 1   
    77    43    44 1   
    78    43    45 2   
    79    44    46 2   
    80    44   120 1   
    81    45    47 1   
    82    45   121 1   
    83    46    47 1   
    84    46    49 1   
    85    47    48 1   
    86    48   122 1   
    87    48   123 1   
    88    48   124 1   
    89    49    50 2   
    90    49    51 1   
    91    51    52 1   
    92    51   125 1   
    93    52    53 1   
    94    52    54 2   
    95    53    55 2   
    96    53   126 1   
    97    54    56 1   
    98    54   127 1   
    99    55    56 1   
   100    55    58 1   
   101    56    57 1   
   102    57   128 1   
   103    57   129 1   
   104    57   130 1   
   105    58    59 2   
   106    58    60 1   
   107    60    61 1   
   108    60   131 1   
   109    61    62 1   
   110    61    63 2   
   111    62    64 2   
   112    62   132 1   
   113    63    65 1   
   114    63   133 1   
   115    64    65 1   
   116    64    67 1   
   117    65    66 1   
   118    66   134 1   
   119    66   135 1   
   120    66   136 1   
   121    67    68 2   
   122    67    69 1   
   123    69    70 1   
   124    69   137 1   
   125    70    71 1   
   126    70    72 2   
   127    71    73 2   
   128    71   138 1   
   129    72    74 1   
   130    72   139 1   
   131    73    74 1   
   132    73    76 1   
   133    74    75 1   
   134    75   140 1   
   135    75   141 1   
   136    75   142 1   
   137    76    77 2   
   138    76    78 1   
   139    78    79 1   
   140    78   143 1   
   141    79    80 1   
   142    79   144 1   
   143    79   145 1   
   144    80    81 1   
   145    80   146 1   
   146    80   147 1   
   147    81    82 2   
   148    81    83 1   
   149    83    84 1   
   150    83   159 1   
   151    84    85 1   
   152    84   148 1   
   153    84   160 1   
   154    85    86 1   
   155    85   149 1   
   156    85   150 1   
   157    86    87 1   
   158    86   151 1   
   159    86   152 1   
   160    87    88 1   
   161    87    89 1   
   162    88   153 1   
   163    88   154 1   
   164    88   155 1   
   165    89   156 1   
   166    89   157 1   
   167    89   158 1   
@<TRIPOS>SUBSTRUCTURE
     1 1SZ         1 TEMP              0 ****  ****    0 ROOT
