@<TRIPOS>MOLECULE
1T0
   63    67     1     0     0
SMALL
No Charge or Current Charge


@<TRIPOS>ATOM
      1 N1          11.1830   -18.6930    23.9660 ns         1 1T0      -0.485900
      2 C2          11.6920   -14.2080    26.2130 ca         1 1T0      -0.174000
      3 N3          10.2190   -24.3130    29.1130 na         1 1T0       0.121800
      4 C4          12.8880   -16.2840    26.2910 ca         1 1T0      -0.164000
      5 C5          11.9850   -16.8120    25.3430 ca         1 1T0       0.310500
      6 C6          12.1270   -18.2710    24.8820 c          1 1T0       0.501600
      7 N2          11.4980   -23.8230    28.9590 nc         1 1T0      -0.525800
      8 N4          13.6100   -14.4610    27.7880 n          1 1T0      -0.226400
      9 C7          11.0850   -20.0440    23.4100 c3         1 1T0       0.148300
     10 C8          10.1040   -20.8990    24.2000 ca         1 1T0      -0.074300
     11 C1          10.8310   -14.7860    25.2690 ca         1 1T0       0.379300
     12 C10          7.8670   -21.7880    24.5320 ca         1 1T0       0.173000
     13 C11          8.2950   -22.4720    25.6790 ca         1 1T0      -0.155000
     14 C12          9.6360   -22.3770    26.1050 ca         1 1T0       0.053000
     15 C13         10.5320   -21.5850    25.3540 ca         1 1T0      -0.113000
     16 C14         10.0920   -23.0890    27.3140 cd         1 1T0      -0.168000
     17 C15         11.3960   -23.0880    27.8680 cd         1 1T0       0.263900
     18 C17          9.3330   -23.8870    28.1290 cc         1 1T0      -0.141000
     19 C18         15.0100   -14.9020    27.9280 c5         1 1T0       0.098000
     20 C19         15.6200   -13.8440    28.8910 c5         1 1T0      -0.081400
     21 C20         14.3880   -13.3000    29.7040 c5         1 1T0      -0.032900
     22 C21         14.4730   -11.8210    29.8370 c1         1 1T0       0.312900
     23 C22         13.1640   -13.6210    28.8260 c          1 1T0       0.580000
     24 C23         14.3710   -14.0960    31.0850 cx         1 1T0      -0.111000
     25 C24         14.1940   -15.6180    31.0380 c3         1 1T0      -0.064100
     26 C25         13.7380   -13.3630    32.2600 cx         1 1T0      -0.114400
     27 C26         15.2450   -13.5130    32.1850 cx         1 1T0      -0.114400
     28 C3          12.7900   -14.9400    26.7020 ca         1 1T0       0.016000
     29 C9           8.7620   -21.0040    23.7930 ca         1 1T0      -0.156000
     30 F            6.5790   -21.8860    24.1360 f          1 1T0      -0.187000
     31 N           10.9690   -16.0550    24.8330 nb         1 1T0      -0.702000
     32 N5          14.5700   -10.6620    29.9090 n1         1 1T0      -0.435000
     33 O           13.0080   -19.0260    25.2840 o          1 1T0      -0.606100
     34 O1          12.0100   -13.2400    28.9880 o          1 1T0      -0.501000
     35 H1          10.4920   -17.9980    23.7000 hn         1 1T0       0.345500
     36 H2          11.5140   -13.1850    26.5280 ha         1 1T0       0.158000
     37 H3          13.6590   -16.9300    26.6980 ha         1 1T0       0.149000
     38 H4          12.0760   -20.5180    23.4080 h1         1 1T0       0.070200
     39 H5          10.7550   -19.9710    22.3660 h1         1 1T0       0.070200
     40 H6           9.4010   -14.3550    23.6910 hc         1 1T0       0.056700
     41 H7           8.7780   -14.1160    25.3330 hc         1 1T0       0.056700
     42 H8           9.8980   -12.9390    24.6260 hc         1 1T0       0.056700
     43 H9           7.5770   -23.0700    26.2300 ha         1 1T0       0.126000
     44 H10         11.5690   -21.4930    25.6630 ha         1 1T0       0.121000
     45 H11         12.2760   -22.5710    27.5070 h4         1 1T0       0.040100
     46 H12         10.1000   -24.6760    31.1860 h1         1 1T0       0.058033
     47 H13          8.8470   -25.4900    30.2030 h1         1 1T0       0.058033
     48 H14         10.5290   -26.0990    30.1880 h1         1 1T0       0.058033
     49 H15          8.2920   -24.1810    28.1040 h4         1 1T0       0.155000
     50 H16         15.0540   -15.9120    28.3550 h1         1 1T0       0.064200
     51 H17         15.5320   -14.9210    26.9620 h1         1 1T0       0.064200
     52 H18         16.4230   -14.2540    29.5160 hc         1 1T0       0.073700
     53 H19         16.0840   -13.0520    28.2900 hc         1 1T0       0.073700
     54 H20         14.0320   -16.0340    32.0400 hc         1 1T0       0.044367
     55 H21         13.3320   -15.9060    30.4250 hc         1 1T0       0.044367
     56 H22         15.0850   -16.1110    30.6320 hc         1 1T0       0.044367
     57 H23         13.3140   -12.3710    32.1290 hc         1 1T0       0.081200
     58 H24         13.2180   -13.9560    33.0090 hc         1 1T0       0.081200
     59 H25         15.7130   -14.2070    32.8790 hc         1 1T0       0.081200
     60 H26         15.8410   -12.6250    31.9910 hc         1 1T0       0.081200
     61 H27          8.4110   -20.4790    22.9080 ha         1 1T0       0.131000
     62 C16          9.9040   -25.2000    30.2430 c3         1 1T0       0.075900
     63 C            9.6630   -14.0070    24.6970 c3         1 1T0      -0.147400
@<TRIPOS>BOND
     1     1     6 1   
     2     1     9 1   
     3     1    35 1   
     4     2    11 ar  
     5     2    28 ar  
     6     2    36 1   
     7     3     7 1   
     8     3    18 1   
     9     3    62 1   
    10     4     5 ar  
    11     4    28 ar  
    12     4    37 1   
    13     5     6 1   
    14     5    31 ar  
    15     6    33 2   
    16     7    17 2   
    17     8    19 1   
    18     8    23 1   
    19     8    28 1   
    20     9    10 1   
    21     9    38 1   
    22     9    39 1   
    23    10    15 ar  
    24    10    29 ar  
    25    11    31 ar  
    26    11    63 1   
    27    12    13 ar  
    28    12    29 ar  
    29    12    30 1   
    30    13    14 ar  
    31    13    43 1   
    32    14    15 ar  
    33    14    16 1   
    34    15    44 1   
    35    16    17 1   
    36    16    18 2   
    37    17    45 1   
    38    18    49 1   
    39    19    20 1   
    40    19    50 1   
    41    19    51 1   
    42    20    21 1   
    43    20    52 1   
    44    20    53 1   
    45    21    22 1   
    46    21    23 1   
    47    21    24 1   
    48    22    32 3   
    49    23    34 2   
    50    24    25 1   
    51    24    26 1   
    52    24    27 1   
    53    25    54 1   
    54    25    55 1   
    55    25    56 1   
    56    26    27 1   
    57    26    57 1   
    58    26    58 1   
    59    27    59 1   
    60    27    60 1   
    61    29    61 1   
    62    40    63 1   
    63    41    63 1   
    64    42    63 1   
    65    46    62 1   
    66    47    62 1   
    67    48    62 1   
@<TRIPOS>SUBSTRUCTURE
     1 1T0         1 TEMP              0 ****  ****    0 ROOT
