@<TRIPOS>MOLECULE
1T0
   63    67     1     0     0
SMALL
abcg2


@<TRIPOS>ATOM
      1 N1          10.9430   -18.4270    23.8270 ns         1 1T0      -0.485900
      2 C2          11.1690   -14.6960    27.0190 ca         1 1T0      -0.174000
      3 N3           9.5550   -22.7450    29.3280 na         1 1T0       0.121800
      4 C4          12.7360   -16.3130    26.2090 ca         1 1T0      -0.164000
      5 C5          11.7210   -16.8060    25.4120 ca         1 1T0       0.310500
      6 C6          12.0030   -17.9990    24.5310 c          1 1T0       0.501600
      7 N2           9.7270   -21.4090    29.3950 nc         1 1T0      -0.525800
      8 N4          13.4720   -14.7170    27.8690 n          1 1T0      -0.226400
      9 C7          10.9530   -19.6210    23.0150 c3         1 1T0       0.148300
     10 C8          10.4700   -20.8680    23.7330 ca         1 1T0      -0.074300
     11 C1          10.2100   -15.2600    26.1750 ca         1 1T0       0.379300
     12 C10          9.7530   -23.1370    23.6370 ca         1 1T0       0.173000
     13 C11          9.6240   -23.2130    25.0090 ca         1 1T0      -0.155000
     14 C12          9.9290   -22.0820    25.7760 ca         1 1T0       0.053000
     15 C13         10.3510   -20.9190    25.1150 ca         1 1T0      -0.113000
     16 C14          9.8080   -22.1030    27.2330 cd         1 1T0      -0.168000
     17 C15          9.8830   -21.0150    28.1340 cd         1 1T0       0.263900
     18 C17          9.5940   -23.2000    28.0610 cc         1 1T0      -0.141000
     19 C18         14.8690   -15.1400    27.6860 c5         1 1T0       0.098000
     20 C19         15.6730   -14.2270    28.6130 c5         1 1T0      -0.081400
     21 C20         14.6550   -13.7210    29.6610 c5         1 1T0      -0.032900
     22 C21         14.8340   -12.2930    29.9050 c1         1 1T0       0.312900
     23 C22         13.2830   -13.9230    28.9660 c          1 1T0       0.580000
     24 C23         14.6720   -14.5220    30.9820 cx         1 1T0      -0.111000
     25 C24         14.3980   -16.0020    30.8200 c3         1 1T0      -0.064100
     26 C25         14.1810   -13.8650    32.2420 cx         1 1T0      -0.114400
     27 C26         15.6570   -14.1120    32.0410 cx         1 1T0      -0.114400
     28 C3          12.4560   -15.2290    27.0490 ca         1 1T0       0.016000
     29 C9          10.1640   -21.9980    22.9730 ca         1 1T0      -0.156000
     30 F            9.4440   -24.2380    22.9010 f          1 1T0      -0.187000
     31 N           10.4820   -16.3030    25.3890 nb         1 1T0      -0.702000
     32 N5          14.9890   -11.1670    30.0780 n1         1 1T0      -0.435000
     33 O           13.1170   -18.5220    24.4920 o          1 1T0      -0.606100
     34 O1          12.2360   -13.4720    29.3830 o          1 1T0      -0.501000
     35 H1          10.0750   -17.9330    23.9860 hn         1 1T0       0.345500
     36 H2          10.9060   -13.8560    27.6390 ha         1 1T0       0.158000
     37 H3          13.7040   -16.7840    26.1720 ha         1 1T0       0.149000
     38 H4          11.9750   -19.7810    22.6660 h1         1 1T0       0.070200
     39 H5          10.3310   -19.4480    22.1360 h1         1 1T0       0.070200
     40 H6           8.2010   -15.2640    25.4430 hc         1 1T0       0.056700
     41 H7           8.3640   -14.7090    27.1210 hc         1 1T0       0.056700
     42 H8           8.8430   -13.6500    25.8010 hc         1 1T0       0.056700
     43 H9           9.2810   -24.1330    25.4620 ha         1 1T0       0.126000
     44 H10         10.5880   -20.0400    25.6960 ha         1 1T0       0.121000
     45 H11         10.0340   -19.9700    27.9150 h4         1 1T0       0.040100
     46 H12          8.4040   -23.2130    31.0110 h1         1 1T0       0.058033
     47 H13          9.2900   -24.5670    30.2750 h1         1 1T0       0.058033
     48 H14         10.1640   -23.3490    31.2320 h1         1 1T0       0.058033
     49 H15          9.4790   -24.2480    27.8410 h4         1 1T0       0.155000
     50 H16         14.9760   -16.1920    27.9510 h1         1 1T0       0.064200
     51 H17         15.1550   -15.0150    26.6440 h1         1 1T0       0.064200
     52 H18         16.5030   -14.7470    29.0840 hc         1 1T0       0.073700
     53 H19         16.0720   -13.3870    28.0470 hc         1 1T0       0.073700
     54 H20         14.4100   -16.4800    31.7990 hc         1 1T0       0.044367
     55 H21         13.4190   -16.1880    30.3730 hc         1 1T0       0.044367
     56 H22         15.1570   -16.4900    30.2060 hc         1 1T0       0.044367
     57 H23         13.8350   -12.8420    32.1990 hc         1 1T0       0.081200
     58 H24         13.6450   -14.4920    32.9410 hc         1 1T0       0.081200
     59 H25         16.1300   -14.9060    32.6030 hc         1 1T0       0.081200
     60 H26         16.2880   -13.2520    31.8580 hc         1 1T0       0.081200
     61 H27         10.2390   -21.9940    21.8930 ha         1 1T0       0.131000
     62 C16          9.3390   -23.5140    30.5390 c3         1 1T0       0.075900
     63 C            8.8210   -14.6910    26.1300 c3         1 1T0      -0.147400
@<TRIPOS>BOND
     1     1     6 1   
     2     1     9 1   
     3     1    35 1   
     4     2    11 ar  
     5     2    28 ar  
     6     2    36 1   
     7     3     7 1   
     8     3    18 1   
     9     3    62 1   
    10     4     5 ar  
    11     4    28 ar  
    12     4    37 1   
    13     5     6 1   
    14     5    31 ar  
    15     6    33 2   
    16     7    17 2   
    17     8    19 1   
    18     8    23 1   
    19     8    28 1   
    20     9    10 1   
    21     9    38 1   
    22     9    39 1   
    23    10    15 ar  
    24    10    29 ar  
    25    11    31 ar  
    26    11    63 1   
    27    12    13 ar  
    28    12    29 ar  
    29    12    30 1   
    30    13    14 ar  
    31    13    43 1   
    32    14    15 ar  
    33    14    16 1   
    34    15    44 1   
    35    16    17 1   
    36    16    18 2   
    37    17    45 1   
    38    18    49 1   
    39    19    20 1   
    40    19    50 1   
    41    19    51 1   
    42    20    21 1   
    43    20    52 1   
    44    20    53 1   
    45    21    22 1   
    46    21    23 1   
    47    21    24 1   
    48    22    32 3   
    49    23    34 2   
    50    24    25 1   
    51    24    26 1   
    52    24    27 1   
    53    25    54 1   
    54    25    55 1   
    55    25    56 1   
    56    26    27 1   
    57    26    57 1   
    58    26    58 1   
    59    27    59 1   
    60    27    60 1   
    61    29    61 1   
    62    40    63 1   
    63    41    63 1   
    64    42    63 1   
    65    46    62 1   
    66    47    62 1   
    67    48    62 1   
@<TRIPOS>SUBSTRUCTURE
     1 1T0         1 TEMP              0 ****  ****    0 ROOT
