@<TRIPOS>MOLECULE
1T4
   33    36     1     0     0
SMALL
No Charge or Current Charge


@<TRIPOS>ATOM
      1 C1           0.6190    -0.3590    -0.0720 ca         1 1T4      -0.053000
      2 C2           1.9050     0.2430    -0.1280 ca         1 1T4      -0.020000
      3 C3           2.0010     1.6510    -0.1810 ca         1 1T4      -0.102000
      4 C4           0.8500     2.4520    -0.1640 ca         1 1T4      -0.080000
      5 C5          -0.4210     1.8620    -0.1000 ca         1 1T4      -0.043000
      6 C6          -0.5400     0.4560    -0.0560 ca         1 1T4      -0.003000
      7 C7          -1.8260    -0.1300     0.0040 ca         1 1T4      -0.016000
      8 C8          -2.9790     0.6870     0.0200 ca         1 1T4      -0.030000
      9 C9          -4.2560     0.0980     0.0800 ca         1 1T4      -0.095000
     10 C10         -4.3860    -1.3010     0.1240 ca         1 1T4      -0.105000
     11 C11         -3.2410    -2.1150     0.1080 ca         1 1T4      -0.095000
     12 C12         -1.9610    -1.5330     0.0490 ca         1 1T4      -0.033000
     13 C13         -0.8150    -2.3440     0.0340 ca         1 1T4      -0.094000
     14 C14          0.4630    -1.7650    -0.0240 ca         1 1T4      -0.098000
     15 C15         -2.8470     2.0860    -0.0240 ca         1 1T4      -0.099000
     16 C16         -1.5730     2.6710    -0.0840 ca         1 1T4      -0.090000
     17 N1           3.0670    -0.5820    -0.1600 ns         1 1T4      -0.170000
     18 C17          4.4070    -0.3140     0.0860 c          1 1T4       0.605100
     19 O18          4.8420     0.7690     0.4580 o          1 1T4      -0.579100
     20 C19          5.3290    -1.5110    -0.1260 c3         1 1T4      -0.181100
     21 H1           2.9640     2.1470    -0.2540 ha         1 1T4       0.130000
     22 H2           0.9500     3.5350    -0.2070 ha         1 1T4       0.118000
     23 H3          -5.1480     0.7210     0.0920 ha         1 1T4       0.114000
     24 H4          -5.3740    -1.7530     0.1700 ha         1 1T4       0.114000
     25 H5          -3.3510    -3.1970     0.1430 ha         1 1T4       0.114000
     26 H6          -0.9110    -3.4270     0.0700 ha         1 1T4       0.113000
     27 H7           1.3230    -2.4290    -0.0290 ha         1 1T4       0.108000
     28 H8          -3.7300     2.7210    -0.0130 ha         1 1T4       0.114000
     29 H9          -1.4820     3.7550    -0.1190 ha         1 1T4       0.115000
     30 H10          2.8820    -1.5410    -0.4230 hn         1 1T4       0.155000
     31 H11          5.1930    -1.8900    -1.1460 hc         1 1T4       0.062033
     32 H12          6.3790    -1.2790     0.0830 hc         1 1T4       0.062033
     33 H13          4.9710    -2.3500     0.4820 hc         1 1T4       0.062033
@<TRIPOS>BOND
     1     1     2 ar  
     2     1     6 ar  
     3     1    14 ar  
     4     2     3 ar  
     5     2    17 1   
     6     3     4 ar  
     7     3    21 1   
     8     4     5 ar  
     9     4    22 1   
    10     5     6 ar  
    11     5    16 ar  
    12     6     7 ar  
    13     7     8 ar  
    14     7    12 ar  
    15     8     9 ar  
    16     8    15 ar  
    17     9    10 ar  
    18     9    23 1   
    19    10    11 ar  
    20    10    24 1   
    21    11    12 ar  
    22    11    25 1   
    23    12    13 ar  
    24    13    14 ar  
    25    13    26 1   
    26    14    27 1   
    27    15    16 ar  
    28    15    28 1   
    29    16    29 1   
    30    17    18 1   
    31    17    30 1   
    32    18    19 2   
    33    18    20 1   
    34    20    31 1   
    35    20    32 1   
    36    20    33 1   
@<TRIPOS>SUBSTRUCTURE
     1 1T4         1 TEMP              0 ****  ****    0 ROOT
