@<TRIPOS>MOLECULE
1T4
   33    36     1     0     0
SMALL
abcg2


@<TRIPOS>ATOM
      1 C1           0.6350    -0.3810    -0.1630 ca         1 1T4      -0.053000
      2 C2           1.8990     0.2160    -0.2860 ca         1 1T4      -0.020000
      3 C3           2.0190     1.6010    -0.3210 ca         1 1T4      -0.102000
      4 C4           0.9000     2.4090    -0.2440 ca         1 1T4      -0.080000
      5 C5          -0.3780     1.8590    -0.1480 ca         1 1T4      -0.043000
      6 C6          -0.5130     0.4500    -0.1110 ca         1 1T4      -0.003000
      7 C7          -1.8080    -0.1280    -0.0120 ca         1 1T4      -0.016000
      8 C8          -2.9560     0.7020     0.0370 ca         1 1T4      -0.030000
      9 C9          -4.2180     0.1130     0.1320 ca         1 1T4      -0.095000
     10 C10         -4.3540    -1.2670     0.1800 ca         1 1T4      -0.105000
     11 C11         -3.2360    -2.0850     0.1370 ca         1 1T4      -0.095000
     12 C12         -1.9570    -1.5350     0.0420 ca         1 1T4      -0.033000
     13 C13         -0.7800    -2.3480     0.0070 ca         1 1T4      -0.094000
     14 C14          0.4530    -1.8010    -0.0880 ca         1 1T4      -0.098000
     15 C15         -2.7840     2.1230    -0.0090 ca         1 1T4      -0.099000
     16 C16         -1.5530     2.6740    -0.0940 ca         1 1T4      -0.090000
     17 N1           3.0380    -0.6000    -0.4070 ns         1 1T4      -0.170000
     18 C17          4.1580    -0.4850     0.3530 c          1 1T4       0.605100
     19 O18          4.2760     0.3480     1.2340 o          1 1T4      -0.579100
     20 C19          5.2550    -1.4570     0.0060 c3         1 1T4      -0.181100
     21 H1           2.9940     2.0530    -0.4360 ha         1 1T4       0.130000
     22 H2           1.0150     3.4860    -0.2780 ha         1 1T4       0.118000
     23 H3          -5.0960     0.7460     0.1690 ha         1 1T4       0.114000
     24 H4          -5.3400    -1.7060     0.2540 ha         1 1T4       0.114000
     25 H5          -3.3480    -3.1620     0.1770 ha         1 1T4       0.114000
     26 H6          -0.8920    -3.4240     0.0620 ha         1 1T4       0.113000
     27 H7           1.3170    -2.4520    -0.0970 ha         1 1T4       0.108000
     28 H8          -3.6640     2.7530     0.0280 ha         1 1T4       0.114000
     29 H9          -1.4360     3.7510    -0.1240 ha         1 1T4       0.115000
     30 H10          2.9980    -1.3540    -1.0750 hn         1 1T4       0.155000
     31 H11          4.9220    -2.2920    -0.6080 hc         1 1T4       0.062033
     32 H12          6.0370    -0.9280    -0.5410 hc         1 1T4       0.062033
     33 H13          5.7010    -1.8470     0.9190 hc         1 1T4       0.062033
@<TRIPOS>BOND
     1     1     2 ar  
     2     1     6 ar  
     3     1    14 ar  
     4     2     3 ar  
     5     2    17 1   
     6     3     4 ar  
     7     3    21 1   
     8     4     5 ar  
     9     4    22 1   
    10     5     6 ar  
    11     5    16 ar  
    12     6     7 ar  
    13     7     8 ar  
    14     7    12 ar  
    15     8     9 ar  
    16     8    15 ar  
    17     9    10 ar  
    18     9    23 1   
    19    10    11 ar  
    20    10    24 1   
    21    11    12 ar  
    22    11    25 1   
    23    12    13 ar  
    24    13    14 ar  
    25    13    26 1   
    26    14    27 1   
    27    15    16 ar  
    28    15    28 1   
    29    16    29 1   
    30    17    18 1   
    31    17    30 1   
    32    18    19 2   
    33    18    20 1   
    34    20    31 1   
    35    20    32 1   
    36    20    33 1   
@<TRIPOS>SUBSTRUCTURE
     1 1T4         1 TEMP              0 ****  ****    0 ROOT
