@<TRIPOS>MOLECULE
1T5
   81    85     1     0     0
SMALL
bcc


@<TRIPOS>ATOM
      1 C1           4.3400    -2.1620     4.2480 ca         1 1T5      -0.135000
      2 C2           3.7000    -3.2760     3.7310 ca         1 1T5      -0.132500
      3 C3           4.4190    -1.0060     3.4780 ca         1 1T5      -0.132500
      4 C4          -5.1470     0.2770    -1.0910 ca         1 1T5      -0.152000
      5 C5          -6.4030    -0.3040    -1.1230 ca         1 1T5      -0.139000
      6 C6           5.3910    -0.4110    -2.5810 ca         1 1T5      -0.059000
      7 C7           3.1420    -3.2400     2.4560 ca         1 1T5      -0.117500
      8 C8           3.8620    -0.9760     2.2100 ca         1 1T5      -0.117500
      9 C9           4.0890     0.0390    -2.5790 ca         1 1T5      -0.224000
     10 C10         -1.6370    -0.3820    -0.6940 ca         1 1T5      -0.091000
     11 C11         -2.6520     1.7350    -0.2310 ca         1 1T5      -0.166000
     12 C12         -5.5770    -2.0820     0.2540 ca         1 1T5      -0.056000
     13 C13          4.8880    -1.8320    -0.7310 ca         1 1T5      -0.056000
     14 C14         -0.2720     1.6010    -0.5830 ca         1 1T5      -0.134000
     15 C15         -4.1030    -0.2850    -0.3560 cp         1 1T5      -0.016000
     16 C16         -2.7750     0.3630    -0.4040 cp         1 1T5       0.040000
     17 C17         -6.6300    -1.4960    -0.4400 ca         1 1T5      -0.175600
     18 C18          5.8190    -1.3610    -1.6510 ca         1 1T5      -0.270900
     19 C19         -4.3270    -1.4800     0.3410 ca         1 1T5      -0.116600
     20 C20          3.2130    -2.0920     1.6740 ca         1 1T5      -0.061300
     21 C21         -0.3950     0.2270    -0.7690 ca         1 1T5      -0.092300
     22 C22          3.5720    -1.3980    -0.7050 ca         1 1T5      -0.149300
     23 C23          3.1540    -0.4450    -1.6510 ca         1 1T5       0.211600
     24 C24         -1.4090     2.3630    -0.3230 ca         1 1T5       0.045600
     25 C26         -7.9500    -2.1970    -0.4530 c          1 1T5       0.685700
     26 C27         -3.2880    -2.1260     1.2540 c          1 1T5       0.920200
     27 C28         -0.4400     4.6520    -0.4690 c          1 1T5       0.670100
     28 C29          1.3580    -1.0700     0.4000 c6         1 1T5      -0.081400
     29 C30          0.8180    -0.6480    -0.9630 c6         1 1T5       0.270800
     30 C31          2.5840    -1.9940     0.2870 c6         1 1T5       0.055600
     31 C32          2.1370    -3.3640    -0.2420 c3         1 1T5      -0.085100
     32 C33         -0.0810     8.3820     0.4860 c3         1 1T5      -0.089600
     33 C34          0.7620     6.3880     1.7540 c3         1 1T5      -0.089600
     34 C35         -0.8220     6.0900    -0.1890 c3         1 1T5      -0.158400
     35 C36          0.3270     6.9160     0.3910 c3         1 1T5      -0.051700
     36 N37          7.8400    -2.2300    -0.5590 n2         1 1T5      -0.867100
     37 N38          1.8700     0.0360    -1.6740 nu         1 1T5      -0.744600
     38 N39          7.8710    -1.8330    -2.8150 nv         1 1T5      -0.922800
     39 N40         -9.0240    -1.4270    -0.6920 nt         1 1T5      -0.682000
     40 N41         -1.3880     3.7470    -0.1120 ns         1 1T5      -0.467100
     41 O42         -8.0300    -3.4020    -0.2580 o          1 1T5      -0.612100
     42 O43         -2.6910    -1.3630     2.0300 o          1 1T5      -0.809300
     43 O44          0.6200     4.3520    -0.9890 o          1 1T5      -0.594100
     44 O45         -3.1750    -3.3620     1.1590 o          1 1T5      -0.809300
     45 H46          4.7780    -2.1910     5.2370 ha         1 1T5       0.121000
     46 H47          3.6340    -4.1840     4.3160 ha         1 1T5       0.123500
     47 H48          4.9180    -0.1280     3.8650 ha         1 1T5       0.123500
     48 H49         -4.9700     1.1760    -1.6690 ha         1 1T5       0.111000
     49 H50         -7.1780     0.1630    -1.7160 ha         1 1T5       0.105000
     50 H51          6.0830     0.0010    -3.3050 ha         1 1T5       0.128000
     51 H52          2.6560    -4.1310     2.0840 ha         1 1T5       0.136000
     52 H53          3.9440    -0.0700     1.6210 ha         1 1T5       0.136000
     53 H54          3.7790     0.7840    -3.3020 ha         1 1T5       0.129000
     54 H55         -1.7180    -1.4490    -0.8620 ha         1 1T5       0.156000
     55 H56         -3.5340     2.3270    -0.0120 ha         1 1T5       0.122000
     56 H57         -5.7440    -3.0180     0.7700 ha         1 1T5       0.166000
     57 H58          5.1860    -2.5870    -0.0120 ha         1 1T5       0.134000
     58 H59          0.7030     2.0570    -0.6380 ha         1 1T5       0.161000
     59 H60          1.6200    -0.1640     0.9530 hc         1 1T5       0.081200
     60 H61          0.5700    -1.5740     0.9640 hc         1 1T5       0.081200
     61 H62          0.4910    -1.5430    -1.5110 h1         1 1T5       0.044700
     62 H64          1.3370    -3.7850     0.3700 hc         1 1T5       0.040700
     63 H63          1.7590    -3.2810    -1.2600 hc         1 1T5       0.040700
     64 H65          2.9640    -4.0760    -0.2620 hc         1 1T5       0.040700
     65 H68         -0.9220     8.5130     1.1720 hc         1 1T5       0.033367
     66 H67          0.7440     8.9910     0.8590 hc         1 1T5       0.033367
     67 H66         -0.3770     8.7820    -0.4850 hc         1 1T5       0.033367
     68 H70          1.5780     6.9890     2.1580 hc         1 1T5       0.033367
     69 H69         -0.0640     6.4280     2.4670 hc         1 1T5       0.033367
     70 H71          1.1120     5.3560     1.7050 hc         1 1T5       0.033367
     71 H73         -1.1390     6.5240    -1.1430 hc         1 1T5       0.053200
     72 H72         -1.6890     6.1430     0.4760 hc         1 1T5       0.053200
     73 H74          1.1740     6.8430    -0.2970 hc         1 1T5       0.067700
     74 H75          7.2690    -2.0760     0.2640 hn         1 1T5       0.390400
     75 H76          1.5920     0.4780    -2.5370 hn         1 1T5       0.417800
     76 H78          7.3270    -1.9830    -3.6480 hn         1 1T5       0.403300
     77 H79         -8.9760    -0.4240    -0.6960 hn         1 1T5       0.301500
     78 H80         -9.9440    -1.8390    -0.6820 hn         1 1T5       0.301500
     79 H81         -2.2410     4.1290     0.2640 hn         1 1T5       0.310500
     80 H77          8.7720    -2.2850    -2.8290 hn         1 1T5       0.403300
     81 C25          7.2200    -1.8490    -1.6130 ce         1 1T5       0.673800
@<TRIPOS>BOND
     1     1     2 ar  
     2     1     3 ar  
     3     1    45 1   
     4     2     7 ar  
     5     2    46 1   
     6     3     8 ar  
     7     3    47 1   
     8     4     5 ar  
     9     4    15 ar  
    10     4    48 1   
    11     5    17 ar  
    12     5    49 1   
    13     6     9 ar  
    14     6    18 ar  
    15     6    50 1   
    16     7    20 ar  
    17     7    51 1   
    18     8    20 ar  
    19     8    52 1   
    20     9    23 ar  
    21     9    53 1   
    22    10    16 ar  
    23    10    21 ar  
    24    10    54 1   
    25    11    16 ar  
    26    11    24 ar  
    27    11    55 1   
    28    12    17 ar  
    29    12    19 ar  
    30    12    56 1   
    31    13    18 ar  
    32    13    22 ar  
    33    13    57 1   
    34    14    21 ar  
    35    14    24 ar  
    36    14    58 1   
    37    15    16 1   
    38    15    19 ar  
    39    17    25 1   
    40    18    81 1   
    41    19    26 1   
    42    20    30 1   
    43    21    29 1   
    44    22    23 ar  
    45    22    30 1   
    46    23    37 1   
    47    24    40 1   
    48    25    39 1   
    49    25    41 2   
    50    26    42 1   
    51    26    44 1   
    52    27    34 1   
    53    27    40 1   
    54    27    43 2   
    55    28    29 1   
    56    28    30 1   
    57    28    59 1   
    58    28    60 1   
    59    29    37 1   
    60    29    61 1   
    61    30    31 1   
    62    31    62 1   
    63    31    63 1   
    64    31    64 1   
    65    32    35 1   
    66    32    65 1   
    67    32    66 1   
    68    32    67 1   
    69    33    35 1   
    70    33    68 1   
    71    33    69 1   
    72    33    70 1   
    73    34    35 1   
    74    34    71 1   
    75    34    72 1   
    76    35    73 1   
    77    36    74 1   
    78    36    81 2   
    79    37    75 1   
    80    38    76 1   
    81    38    80 1   
    82    38    81 1   
    83    39    77 1   
    84    39    78 1   
    85    40    79 1   
@<TRIPOS>SUBSTRUCTURE
     1 1T5         1 TEMP              0 ****  ****    0 ROOT
