@<TRIPOS>MOLECULE
1T5
   81    85     1     0     0
SMALL
No Charge or Current Charge


@<TRIPOS>ATOM
      1 C1           5.6730    -0.7800     3.8370 ca         1 1T5      -0.117000
      2 C2           4.9300    -1.9670     3.9270 ca         1 1T5      -0.114500
      3 C3           5.5290     0.0470     2.7140 ca         1 1T5      -0.114500
      4 C4          -5.0750     0.4130    -1.5230 ca         1 1T5      -0.134000
      5 C5          -6.3760    -0.0840    -1.7040 ca         1 1T5      -0.121000
      6 C6           4.9540    -1.3640    -3.2600 ca         1 1T5      -0.041000
      7 C7           4.0460    -2.3310     2.8960 ca         1 1T5      -0.099500
      8 C8           4.6460    -0.3140     1.6820 ca         1 1T5      -0.099500
      9 C9           3.6550    -0.8660    -3.0800 ca         1 1T5      -0.206000
     10 C10         -1.6730    -0.4540    -0.5670 ca         1 1T5      -0.073000
     11 C11         -2.5730     1.7870    -0.3340 ca         1 1T5      -0.148000
     12 C12         -5.9840    -1.7300     0.0370 ca         1 1T5      -0.038000
     13 C13          4.9430    -2.1860    -0.9720 ca         1 1T5      -0.038000
     14 C14         -0.1700     1.4470    -0.3560 ca         1 1T5      -0.116000
     15 C15         -4.1910    -0.1430    -0.5670 cp         1 1T5      -0.016000
     16 C16         -2.7980     0.3970    -0.4710 cp         1 1T5       0.040000
     17 C17         -6.8480    -1.1690    -0.9280 ca         1 1T5      -0.175600
     18 C18          5.6080    -2.0500    -2.2120 ca         1 1T5      -0.270900
     19 C19         -4.6820    -1.2240     0.2220 ca         1 1T5      -0.116600
     20 C20          3.8950    -1.5100     1.7500 ca         1 1T5      -0.061300
     21 C21         -0.3630     0.0580    -0.5040 ca         1 1T5      -0.092300
     22 C22          3.6420    -1.6730    -0.7800 ca         1 1T5      -0.149300
     23 C23          2.9970    -1.0240    -1.8550 ca         1 1T5       0.350000
     24 C24         -1.2740     2.3220    -0.2700 ca         1 1T5      -0.047000
     25 C26         -8.2420    -1.7330    -1.0980 c          1 1T5       0.618700
     26 C27         -3.7890    -1.7850     1.3050 c          1 1T5       0.709600
     27 C28         -0.0550     4.5740     0.0050 c          1 1T5       0.603100
     28 C29          1.6920    -0.9080     0.6880 c6         1 1T5      -0.081400
     29 C30          0.8330    -0.8990    -0.5970 c6         1 1T5       0.270800
     30 C31          2.9280    -1.8580     0.5820 c6         1 1T5       0.055600
     31 C32          2.4510    -3.3460     0.6290 c3         1 1T5      -0.085100
     32 C33         -0.3800     8.1460     1.6150 c3         1 1T5      -0.089600
     33 C34         -1.0370     5.9020     2.6310 c3         1 1T5      -0.089600
     34 C35         -0.4160     6.0630     0.1360 c3         1 1T5      -0.158400
     35 C36         -0.1700     6.6160     1.5660 c3         1 1T5      -0.051700
     36 N37          7.8000    -2.7350    -1.4220 n2         1 1T5      -0.867100
     37 N38          1.7020    -0.5320    -1.7140 nu         1 1T5      -0.938200
     38 N39          7.3540    -2.9940    -3.6010 nv         1 1T5      -1.033200
     39 N40         -9.0460    -1.1740    -2.0280 nt         1 1T5      -0.615000
     40 N41         -1.1540     3.7320    -0.1230 ns         1 1T5      -0.141000
     41 O42         -8.6640    -2.6650    -0.4330 o          1 1T5      -0.612100
     42 O43         -3.3010    -1.0180     2.1220 o          1 1T5      -0.704000
     43 O44          1.1130     4.2010    -0.0080 o          1 1T5      -0.594100
     44 O45         -3.6960    -3.0010     1.3860 o          1 1T5      -0.704000
     45 H46          6.3560    -0.5020     4.6360 ha         1 1T5       0.103000
     46 H47          5.0370    -2.6070     4.8000 ha         1 1T5       0.105500
     47 H48          6.1000     0.9700     2.6420 ha         1 1T5       0.105500
     48 H49         -4.7360     1.2350    -2.1480 ha         1 1T5       0.093000
     49 H50         -7.0050     0.3810    -2.4580 ha         1 1T5       0.087000
     50 H51          5.4500    -1.2090    -4.2160 ha         1 1T5       0.110000
     51 H52          3.4840    -3.2530     3.0100 ha         1 1T5       0.118000
     52 H53          4.5460     0.3440     0.8210 ha         1 1T5       0.118000
     53 H54          3.1600    -0.3520    -3.8990 ha         1 1T5       0.111000
     54 H55         -1.8270    -1.5220    -0.6990 ha         1 1T5       0.138000
     55 H56         -3.4300     2.4540    -0.2690 ha         1 1T5       0.104000
     56 H57         -6.3250    -2.5550     0.6610 ha         1 1T5       0.148000
     57 H58          5.4300    -2.7070    -0.1490 ha         1 1T5       0.116000
     58 H59          0.8470     1.8250    -0.3200 ha         1 1T5       0.143000
     59 H60          2.0330     0.1160     0.8860 hc         1 1T5       0.081200
     60 H61          1.0710    -1.1870     1.5490 hc         1 1T5       0.081200
     61 H62          0.4500    -1.9180    -0.7590 h1         1 1T5       0.044700
     62 H64          1.8040    -3.5420     1.4920 hc         1 1T5       0.040700
     63 H63          1.8810    -3.6140    -0.2680 hc         1 1T5       0.040700
     64 H65          3.3010    -4.0370     0.6810 hc         1 1T5       0.040700
     65 H68         -1.4180     8.4060     1.3700 hc         1 1T5       0.033367
     66 H67         -0.1550     8.5370     2.6140 hc         1 1T5       0.033367
     67 H66          0.2790     8.6520     0.8990 hc         1 1T5       0.033367
     68 H70         -0.8430     6.3160     3.6280 hc         1 1T5       0.033367
     69 H69         -2.1050     6.0250     2.4120 hc         1 1T5       0.033367
     70 H71         -0.8140     4.8290     2.6680 hc         1 1T5       0.033367
     71 H73          0.2140     6.6250    -0.5640 hc         1 1T5       0.053200
     72 H72         -1.4710     6.2170    -0.1220 hc         1 1T5       0.053200
     73 H74          0.8820     6.4290     1.8210 hc         1 1T5       0.067700
     74 H75          7.3760    -2.3110    -0.5880 hn         1 1T5       0.390400
     75 H76          1.2810    -0.1090    -2.5390 hn         1 1T5       0.473000
     76 H78          6.5800    -3.2510    -4.2000 hn         1 1T5       0.458500
     77 H79         -8.7110    -0.4040    -2.5850 hn         1 1T5       0.301500
     78 H80         -9.9780    -1.5370    -2.1560 hn         1 1T5       0.301500
     79 H81         -2.0430     4.2140    -0.0980 hn         1 1T5       0.144000
     80 H77          8.1430    -3.6260    -3.5960 hn         1 1T5       0.458500
     81 C25          7.0010    -2.5480    -2.3860 ce         1 1T5       0.673800
@<TRIPOS>BOND
     1     1     2 ar  
     2     1     3 ar  
     3     1    45 1   
     4     2     7 ar  
     5     2    46 1   
     6     3     8 ar  
     7     3    47 1   
     8     4     5 ar  
     9     4    15 ar  
    10     4    48 1   
    11     5    17 ar  
    12     5    49 1   
    13     6     9 ar  
    14     6    18 ar  
    15     6    50 1   
    16     7    20 ar  
    17     7    51 1   
    18     8    20 ar  
    19     8    52 1   
    20     9    23 ar  
    21     9    53 1   
    22    10    16 ar  
    23    10    21 ar  
    24    10    54 1   
    25    11    16 ar  
    26    11    24 ar  
    27    11    55 1   
    28    12    17 ar  
    29    12    19 ar  
    30    12    56 1   
    31    13    18 ar  
    32    13    22 ar  
    33    13    57 1   
    34    14    21 ar  
    35    14    24 ar  
    36    14    58 1   
    37    15    16 1   
    38    15    19 ar  
    39    17    25 1   
    40    18    81 1   
    41    19    26 1   
    42    20    30 1   
    43    21    29 1   
    44    22    23 ar  
    45    22    30 1   
    46    23    37 1   
    47    24    40 1   
    48    25    39 1   
    49    25    41 2   
    50    26    42 1   
    51    26    44 1   
    52    27    34 1   
    53    27    40 1   
    54    27    43 2   
    55    28    29 1   
    56    28    30 1   
    57    28    59 1   
    58    28    60 1   
    59    29    37 1   
    60    29    61 1   
    61    30    31 1   
    62    31    62 1   
    63    31    63 1   
    64    31    64 1   
    65    32    35 1   
    66    32    65 1   
    67    32    66 1   
    68    32    67 1   
    69    33    35 1   
    70    33    68 1   
    71    33    69 1   
    72    33    70 1   
    73    34    35 1   
    74    34    71 1   
    75    34    72 1   
    76    35    73 1   
    77    36    74 1   
    78    36    81 2   
    79    37    75 1   
    80    38    76 1   
    81    38    80 1   
    82    38    81 1   
    83    39    77 1   
    84    39    78 1   
    85    40    79 1   
@<TRIPOS>SUBSTRUCTURE
     1 1T5         1 TEMP              0 ****  ****    0 ROOT
