@<TRIPOS>MOLECULE
1T6
   65    69     1     0     0
SMALL
No Charge or Current Charge


@<TRIPOS>ATOM
      1 C13         -1.7650    -0.1090    -0.2120 ca         1 1T6      -0.092000
      2 C18         -6.8100     0.6750     0.9270 ca         1 1T6      -0.175600
      3 C17         -4.2930    -0.0070    -0.2720 cp         1 1T6      -0.013000
      4 C16         -2.9750    -0.2740    -0.9310 cp         1 1T6       0.014000
      5 C15          4.9780    -0.2920     0.9780 ca         1 1T6      -0.008000
      6 C19          5.5930    -1.5390     1.2360 ca         1 1T6      -0.222900
      7 C20         -5.3980    -0.9070    -0.3070 ca         1 1T6      -0.115600
      8 C21          3.9590     2.0550    -0.5800 ca         1 1T6      -0.059300
      9 C22         -0.5120    -0.3220    -0.8210 ca         1 1T6      -0.127300
     10 C23          3.6380    -0.2130     0.5380 ca         1 1T6      -0.169300
     11 C24          2.8940    -1.4030     0.3950 ca         1 1T6       0.354000
     12 C11         -0.4640    -0.7010    -2.1790 ca         1 1T6      -0.104000
     13 C12          3.4860    -2.6410     0.6690 ca         1 1T6      -0.209000
     14 C27         -5.1980    -2.2640    -0.9400 c          1 1T6       0.710600
     15 C1           5.7200     3.5960    -2.1850 ca         1 1T6      -0.117000
     16 C2           5.1090     4.1680    -1.0590 ca         1 1T6      -0.115000
     17 C3           5.4510     2.2600    -2.5180 ca         1 1T6      -0.115000
     18 C4          -1.6510    -0.8570    -2.9130 ca         1 1T6      -0.121000
     19 C5          -2.8940    -0.6410    -2.2960 ca         1 1T6      -0.051000
     20 C6          -4.4860     1.2280     0.3920 ca         1 1T6      -0.134000
     21 C7          -5.7150     1.5670     0.9820 ca         1 1T6      -0.121000
     22 C8           4.8230    -2.7150     1.0900 ca         1 1T6      -0.045000
     23 C9           4.2340     3.4090    -0.2630 ca         1 1T6      -0.102500
     24 C10          4.5770     1.4990    -1.7240 ca         1 1T6      -0.102500
     25 C14         -6.6340    -0.5660     0.2770 ca         1 1T6      -0.037000
     26 C25          7.0050    -1.5890     1.7250 ce         1 1T6       0.673800
     27 C28          1.6700     1.0030    -0.5540 c6         1 1T6      -0.077400
     28 C29          0.7740    -0.1330    -0.0070 c6         1 1T6       0.279800
     29 C30          2.9940     1.1680     0.2590 c6         1 1T6       0.058600
     30 C31          2.6770     1.7940     1.6560 c3         1 1T6      -0.082100
     31 N32          7.6110    -0.5880     2.2140 n2         1 1T6      -0.839100
     32 N33          1.5630    -1.3630    -0.0040 nu         1 1T6      -0.943200
     33 N34          7.6990    -2.7270     1.5280 nv         1 1T6      -1.075200
     34 N35         -8.2870     2.2000     2.1640 nt         1 1T6      -0.615000
     35 O36         -9.1030     0.2460     1.5120 o          1 1T6      -0.616100
     36 O37         -4.2640    -2.9590    -0.5640 o          1 1T6      -0.705500
     37 O38         -6.0580    -2.6590    -1.7140 o          1 1T6      -0.705500
     38 H51         -1.8100     0.1830     0.8340 ha         1 1T6       0.105000
     39 H53          5.5480     0.6260     1.1080 ha         1 1T6       0.134000
     40 H49          0.4930    -0.8740    -2.6660 ha         1 1T6       0.105000
     41 H50          2.9070    -3.5540     0.5650 ha         1 1T6       0.114000
     42 H39          6.3960     4.1860    -2.7990 ha         1 1T6       0.104000
     43 H40          5.3120     5.2060    -0.8020 ha         1 1T6       0.106000
     44 H41          5.9190     1.8130    -3.3920 ha         1 1T6       0.106000
     45 H42         -1.6080    -1.1420    -3.9610 ha         1 1T6       0.104000
     46 H43         -3.8050    -0.7490    -2.8800 ha         1 1T6       0.137000
     47 H44         -3.6680     1.9440     0.4340 ha         1 1T6       0.093000
     48 H45         -5.8020     2.5330     1.4720 ha         1 1T6       0.085000
     49 H46          5.2460    -3.6910     1.3170 ha         1 1T6       0.106000
     50 H47          3.7770     3.8940     0.5950 ha         1 1T6       0.116000
     51 H48          4.3790     0.4660    -2.0020 ha         1 1T6       0.116000
     52 H52         -7.4550    -1.2800     0.2330 ha         1 1T6       0.147000
     53 H54          1.9080     0.7880    -1.6030 hc         1 1T6       0.059700
     54 H55          1.1090     1.9470    -0.5620 hc         1 1T6       0.059700
     55 H56          0.4950     0.1180     1.0270 h1         1 1T6       0.042700
     56 H59          2.0840     2.7120     1.5690 hc         1 1T6       0.038033
     57 H58          2.1080     1.1020     2.2880 hc         1 1T6       0.038033
     58 H57          3.5960     2.0370     2.2030 hc         1 1T6       0.038033
     59 H60          8.4880    -0.9220     2.6260 hn         1 1T6       0.358400
     60 H61          1.0700    -2.2530    -0.0520 hn         1 1T6       0.486000
     61 H63          7.2740    -3.3710     0.8720 hn         1 1T6       0.452500
     62 H64         -7.5090     2.8400     2.2010 hn         1 1T6       0.301500
     63 H65         -9.1730     2.4400     2.5840 hn         1 1T6       0.301500
     64 H62          8.7040    -2.6280     1.4480 hn         1 1T6       0.452500
     65 C26         -8.1500     1.0070     1.5470 c          1 1T6       0.619700
@<TRIPOS>BOND
     1     1     4 ar  
     2     1     9 ar  
     3     1    38 1   
     4     2    21 ar  
     5     2    25 ar  
     6     2    65 1   
     7     3     4 1   
     8     3     7 ar  
     9     3    20 ar  
    10     4    19 ar  
    11     5     6 ar  
    12     5    10 ar  
    13     5    39 1   
    14     6    22 ar  
    15     6    26 1   
    16     7    14 1   
    17     7    25 ar  
    18     8    23 ar  
    19     8    24 ar  
    20     8    29 1   
    21     9    12 ar  
    22     9    28 1   
    23    10    11 ar  
    24    10    29 1   
    25    11    13 ar  
    26    11    32 1   
    27    12    18 ar  
    28    12    40 1   
    29    13    22 ar  
    30    13    41 1   
    31    14    36 1   
    32    14    37 1   
    33    15    16 ar  
    34    15    17 ar  
    35    15    42 1   
    36    16    23 ar  
    37    16    43 1   
    38    17    24 ar  
    39    17    44 1   
    40    18    19 ar  
    41    18    45 1   
    42    19    46 1   
    43    20    21 ar  
    44    20    47 1   
    45    21    48 1   
    46    22    49 1   
    47    23    50 1   
    48    24    51 1   
    49    25    52 1   
    50    26    31 2   
    51    26    33 1   
    52    27    28 1   
    53    27    29 1   
    54    27    53 1   
    55    27    54 1   
    56    28    32 1   
    57    28    55 1   
    58    29    30 1   
    59    30    56 1   
    60    30    57 1   
    61    30    58 1   
    62    31    59 1   
    63    32    60 1   
    64    33    61 1   
    65    33    64 1   
    66    34    62 1   
    67    34    63 1   
    68    34    65 1   
    69    35    65 2   
@<TRIPOS>SUBSTRUCTURE
     1 1T6         1 TEMP              0 ****  ****    0 ROOT
