@<TRIPOS>MOLECULE
1T6
   65    69     1     0     0
SMALL
abcg2


@<TRIPOS>ATOM
      1 C13         -1.6810    -0.3490    -0.1000 ca         1 1T6      -0.092000
      2 C18         -6.5370     1.0750     0.7410 ca         1 1T6      -0.175600
      3 C17         -4.1430     0.0000    -0.2520 cp         1 1T6      -0.013000
      4 C16         -2.8650    -0.4770    -0.8220 cp         1 1T6       0.014000
      5 C15          4.9970    -0.3250     0.8640 ca         1 1T6      -0.008000
      6 C19          5.7570    -1.4840     0.9910 ca         1 1T6      -0.222900
      7 C20         -5.3200    -0.7580    -0.2960 ca         1 1T6      -0.115600
      8 C21          3.6410     2.0040    -0.3290 ca         1 1T6      -0.059300
      9 C22         -0.4580    -0.7400    -0.6330 ca         1 1T6      -0.127300
     10 C23          3.6480    -0.3430     0.5460 ca         1 1T6      -0.169300
     11 C24          3.0100    -1.5830     0.3660 ca         1 1T6       0.354000
     12 C11         -0.4200    -1.2660    -1.9200 ca         1 1T6      -0.104000
     13 C12          3.7670    -2.7570     0.5010 ca         1 1T6      -0.209000
     14 C27         -5.3590    -2.2040    -0.7760 c          1 1T6       0.710600
     15 C1           5.0320     3.8940    -1.8750 ca         1 1T6      -0.117000
     16 C2           4.5010     4.2470    -0.6460 ca         1 1T6      -0.115000
     17 C3           4.8660     2.5920    -2.3380 ca         1 1T6      -0.115000
     18 C4          -1.5920    -1.3920    -2.6540 ca         1 1T6      -0.121000
     19 C5          -2.8060    -1.0020    -2.1120 ca         1 1T6      -0.051000
     20 C6          -4.1850     1.2810     0.3000 ca         1 1T6      -0.134000
     21 C7          -5.3590     1.8140     0.8030 ca         1 1T6      -0.121000
     22 C8           5.1110    -2.7070     0.8040 ca         1 1T6      -0.045000
     23 C9           3.8120     3.3090     0.1190 ca         1 1T6      -0.102500
     24 C10          4.1800     1.6640    -1.5720 ca         1 1T6      -0.102500
     25 C14         -6.4980    -0.2000     0.1850 ca         1 1T6      -0.037000
     26 C25          7.1980    -1.3880     1.3270 ce         1 1T6       0.673800
     27 C28          1.5460     0.7040    -0.3150 c6         1 1T6      -0.077400
     28 C29          0.8020    -0.5360     0.1710 c6         1 1T6       0.279800
     29 C30          2.8570     0.9550     0.4540 c6         1 1T6       0.058600
     30 C31          2.5350     1.4150     1.8810 c3         1 1T6      -0.082100
     31 N32          7.6380    -0.3320     1.9010 n2         1 1T6      -0.839100
     32 N33          1.6840    -1.6710     0.0370 nu         1 1T6      -0.943200
     33 N34          7.9440    -2.4970     1.0270 nv         1 1T6      -1.075200
     34 N35         -7.9590     2.9120     1.3870 nt         1 1T6      -0.615000
     35 O36         -8.7450     0.8100     1.5680 o          1 1T6      -0.616100
     36 O37         -4.4760    -2.9530    -0.3290 o          1 1T6      -0.705500
     37 O38         -6.2960    -2.5010    -1.5420 o          1 1T6      -0.705500
     38 H51         -1.7130     0.0480     0.9090 ha         1 1T6       0.105000
     39 H53          5.4870     0.6300     1.0110 ha         1 1T6       0.134000
     40 H49          0.5240    -1.5790    -2.3500 ha         1 1T6       0.105000
     41 H50          3.2820    -3.7170     0.3660 ha         1 1T6       0.114000
     42 H39          5.5720     4.6200    -2.4680 ha         1 1T6       0.104000
     43 H40          4.6200     5.2550    -0.2720 ha         1 1T6       0.106000
     44 H41          5.2750     2.3000    -3.2960 ha         1 1T6       0.106000
     45 H42         -1.5580    -1.7950    -3.6580 ha         1 1T6       0.104000
     46 H43         -3.7110    -1.0930    -2.7000 ha         1 1T6       0.137000
     47 H44         -3.2820     1.8790     0.3260 ha         1 1T6       0.093000
     48 H45         -5.3330     2.8010     1.2480 ha         1 1T6       0.085000
     49 H46          5.6480    -3.6410     0.9180 ha         1 1T6       0.106000
     50 H47          3.4100     3.6190     1.0740 ha         1 1T6       0.116000
     51 H48          4.0670     0.6530    -1.9450 ha         1 1T6       0.116000
     52 H52         -7.4100    -0.7800     0.1370 ha         1 1T6       0.147000
     53 H54          1.7560     0.5770    -1.3800 hc         1 1T6       0.059700
     54 H55          0.8990     1.5790    -0.2230 hc         1 1T6       0.059700
     55 H56          0.5050    -0.3900     1.2190 h1         1 1T6       0.042700
     56 H59          1.8710     2.2820     1.8860 hc         1 1T6       0.038033
     57 H58          2.0430     0.6220     2.4420 hc         1 1T6       0.038033
     58 H57          3.4420     1.6780     2.4270 hc         1 1T6       0.038033
     59 H60          8.6440    -0.3830     2.0370 hn         1 1T6       0.358400
     60 H61          1.2580    -2.5730     0.1790 hn         1 1T6       0.486000
     61 H63          7.6540    -3.0630     0.2460 hn         1 1T6       0.452500
     62 H64         -7.2760     3.5530     1.0240 hn         1 1T6       0.301500
     63 H65         -8.8240     3.3080     1.7180 hn         1 1T6       0.301500
     64 H62          8.9450    -2.4070     1.1010 hn         1 1T6       0.452500
     65 C26         -7.8420     1.5810     1.2660 c          1 1T6       0.619700
@<TRIPOS>BOND
     1     1     4 ar  
     2     1     9 ar  
     3     1    38 1   
     4     2    21 ar  
     5     2    25 ar  
     6     2    65 1   
     7     3     4 1   
     8     3     7 ar  
     9     3    20 ar  
    10     4    19 ar  
    11     5     6 ar  
    12     5    10 ar  
    13     5    39 1   
    14     6    22 ar  
    15     6    26 1   
    16     7    14 1   
    17     7    25 ar  
    18     8    23 ar  
    19     8    24 ar  
    20     8    29 1   
    21     9    12 ar  
    22     9    28 1   
    23    10    11 ar  
    24    10    29 1   
    25    11    13 ar  
    26    11    32 1   
    27    12    18 ar  
    28    12    40 1   
    29    13    22 ar  
    30    13    41 1   
    31    14    36 1   
    32    14    37 1   
    33    15    16 ar  
    34    15    17 ar  
    35    15    42 1   
    36    16    23 ar  
    37    16    43 1   
    38    17    24 ar  
    39    17    44 1   
    40    18    19 ar  
    41    18    45 1   
    42    19    46 1   
    43    20    21 ar  
    44    20    47 1   
    45    21    48 1   
    46    22    49 1   
    47    23    50 1   
    48    24    51 1   
    49    25    52 1   
    50    26    31 2   
    51    26    33 1   
    52    27    28 1   
    53    27    29 1   
    54    27    53 1   
    55    27    54 1   
    56    28    32 1   
    57    28    55 1   
    58    29    30 1   
    59    30    56 1   
    60    30    57 1   
    61    30    58 1   
    62    31    59 1   
    63    32    60 1   
    64    33    61 1   
    65    33    64 1   
    66    34    62 1   
    67    34    63 1   
    68    34    65 1   
    69    35    65 2   
@<TRIPOS>SUBSTRUCTURE
     1 1T6         1 TEMP              0 ****  ****    0 ROOT
