@<TRIPOS>MOLECULE
1T7
   60    64     1     0     0
SMALL
abcg2


@<TRIPOS>ATOM
      1 C1          -4.7030     0.7280     0.4880 cp         1 1T7      -0.040000
      2 C2          -4.5780     1.9910     1.0680 ca         1 1T7      -0.120000
      3 C3          -5.6480     2.6020     1.7060 ca         1 1T7      -0.150000
      4 C4          -6.8770     1.9580     1.7450 ca         1 1T7      -0.130000
      5 C5          -7.0160     0.7110     1.1540 ca         1 1T7      -0.098000
      6 C6          -5.9390     0.0690     0.5460 ca         1 1T7      -0.099600
      7 C7           3.0470    -0.4260     0.4210 ca         1 1T7      -0.170300
      8 C8           2.2820    -1.5860     0.1980 ca         1 1T7       0.356000
      9 N9           0.9260    -1.5260     0.0260 nu         1 1T7      -0.944200
     10 C10          0.1770    -0.3330     0.3480 c6         1 1T7       0.278800
     11 C11          0.9780     0.8800    -0.1170 c6         1 1T7      -0.080400
     12 C12          2.3590     0.9190     0.5430 c6         1 1T7       0.038900
     13 C13          5.0770    -1.7730     0.5100 ca         1 1T7      -0.223900
     14 C14          4.3060    -2.9130     0.2790 ca         1 1T7      -0.045000
     15 C15          2.9380    -2.8230     0.1260 ca         1 1T7      -0.212000
     16 C16          4.4190    -0.5460     0.5640 ca         1 1T7      -0.010000
     17 C17          6.5500    -1.8220     0.6720 ce         1 1T7       0.673800
     18 N18          7.0720    -3.0560     0.9570 nv         1 1T7      -1.075200
     19 N19          7.2340    -0.7550     0.4940 n2         1 1T7      -0.838100
     20 C20          3.1810     2.0550    -0.0170 ca         1 1T7      -0.067300
     21 C21         -1.1810    -0.3560    -0.3120 ca         1 1T7      -0.090300
     22 C22         -2.2840     0.1300     0.3800 ca         1 1T7      -0.132000
     23 C23         -3.5370     0.1630    -0.2290 cp         1 1T7       0.055000
     24 C24         -3.6710    -0.2860    -1.5370 ca         1 1T7      -0.119000
     25 C25         -2.5730    -0.7790    -2.2450 ca         1 1T7       0.276000
     26 C26         -1.3250    -0.8100    -1.6150 ca         1 1T7      -0.171000
     27 C27          3.5260     3.1410     0.7800 ca         1 1T7      -0.099000
     28 C28          4.2640     4.2000     0.2630 ca         1 1T7      -0.113000
     29 C29          4.6670     4.1840    -1.0640 ca         1 1T7      -0.115000
     30 C30          4.3290     3.1020    -1.8690 ca         1 1T7      -0.113000
     31 C31          3.5940     2.0480    -1.3490 ca         1 1T7      -0.099000
     32 N32         -2.7030    -1.1720    -3.5630 nv         1 1T7      -1.080000
     33 C33         -6.1450    -1.3520     0.0410 c          1 1T7       0.709600
     34 O34         -7.1470    -1.5410    -0.6750 o          1 1T7      -0.714000
     35 O35         -5.3180    -2.1960     0.4250 o          1 1T7      -0.714000
     36 H36         -3.6300     2.5120     1.0060 ha         1 1T7       0.090000
     37 H37         -5.5230     3.5780     2.1550 ha         1 1T7       0.086000
     38 H38         -7.7240     2.4260     2.2310 ha         1 1T7       0.087000
     39 H39         -7.9770     0.2140     1.1830 ha         1 1T7       0.119000
     40 H41          0.0260    -0.2450     1.4330 h1         1 1T7       0.039700
     41 H42          1.0800     0.8420    -1.2040 hc         1 1T7       0.061700
     42 H43          0.4300     1.7910     0.1280 hc         1 1T7       0.061700
     43 H44          2.2030     1.1210     1.6090 hc         1 1T7       0.053700
     44 H45          4.7660    -3.8900     0.1950 ha         1 1T7       0.104000
     45 H46          2.3580    -3.7190    -0.0630 ha         1 1T7       0.113000
     46 H47          5.0090     0.3460     0.7300 ha         1 1T7       0.136000
     47 H48          6.5040    -3.7020     1.4790 hn         1 1T7       0.451500
     48 H50          8.2200    -0.9200     0.6740 hn         1 1T7       0.357400
     49 H51         -2.1700     0.4630     1.4060 ha         1 1T7       0.107000
     50 H52         -4.6420    -0.2540    -2.0200 ha         1 1T7       0.136000
     51 H53         -0.4640    -1.1910    -2.1530 ha         1 1T7       0.105000
     52 H54          3.2150     3.1610     1.8180 ha         1 1T7       0.115000
     53 H55          4.5260     5.0350     0.9010 ha         1 1T7       0.106000
     54 H56          5.2430     5.0060    -1.4700 ha         1 1T7       0.104000
     55 H57          4.6400     3.0790    -2.9060 ha         1 1T7       0.106000
     56 H58          3.3470     1.2060    -1.9860 ha         1 1T7       0.115000
     57 H60         -3.6330    -1.4360    -3.8470 hn         1 1T7       0.440000
     58 H59         -2.0170    -1.8350    -3.8860 hn         1 1T7       0.440000
     59 H49          8.0460    -3.0880     1.2160 hn         1 1T7       0.451500
     60 H40          0.4300    -2.3960     0.1380 hn         1 1T7       0.486000
@<TRIPOS>BOND
     1     1     2 ar  
     2     1     6 ar  
     3     1    23 1   
     4     2     3 ar  
     5     2    36 1   
     6     3     4 ar  
     7     3    37 1   
     8     4     5 ar  
     9     4    38 1   
    10     5     6 ar  
    11     5    39 1   
    12     6    33 1   
    13     7     8 ar  
    14     7    12 1   
    15     7    16 ar  
    16     8     9 1   
    17     8    15 ar  
    18     9    10 1   
    19     9    60 1   
    20    10    11 1   
    21    10    21 1   
    22    10    40 1   
    23    11    12 1   
    24    11    41 1   
    25    11    42 1   
    26    12    20 1   
    27    12    43 1   
    28    13    14 ar  
    29    13    16 ar  
    30    13    17 1   
    31    14    15 ar  
    32    14    44 1   
    33    15    45 1   
    34    16    46 1   
    35    17    18 1   
    36    17    19 2   
    37    18    47 1   
    38    18    59 1   
    39    19    48 1   
    40    20    27 ar  
    41    20    31 ar  
    42    21    22 ar  
    43    21    26 ar  
    44    22    23 ar  
    45    22    49 1   
    46    23    24 ar  
    47    24    25 ar  
    48    24    50 1   
    49    25    26 ar  
    50    25    32 1   
    51    26    51 1   
    52    27    28 ar  
    53    27    52 1   
    54    28    29 ar  
    55    28    53 1   
    56    29    30 ar  
    57    29    54 1   
    58    30    31 ar  
    59    30    55 1   
    60    31    56 1   
    61    32    57 1   
    62    32    58 1   
    63    33    34 1   
    64    33    35 1   
@<TRIPOS>SUBSTRUCTURE
     1 1T7         1 TEMP              0 ****  ****    0 ROOT
