@<TRIPOS>MOLECULE
1T7
   60    64     1     0     0
SMALL
No Charge or Current Charge


@<TRIPOS>ATOM
      1 C1          -4.8660     0.5020     0.6380 cp         1 1T7      -0.040000
      2 C2          -4.8850     1.6740     1.4370 ca         1 1T7      -0.120000
      3 C3          -6.0050     2.0160     2.2120 ca         1 1T7      -0.150000
      4 C4          -7.1410     1.1940     2.2080 ca         1 1T7      -0.130000
      5 C5          -7.1540     0.0210     1.4370 ca         1 1T7      -0.098000
      6 C6          -6.0280    -0.3310     0.6640 ca         1 1T7      -0.099600
      7 C7           3.0550    -0.3000     0.4300 ca         1 1T7      -0.170300
      8 C8           2.2130    -1.4190     0.2640 ca         1 1T7       0.356000
      9 N9           0.8530    -1.2450     0.0250 nu         1 1T7      -0.944200
     10 C10          0.1710     0.0350     0.2200 c6         1 1T7       0.278800
     11 C11          1.0850     1.1500    -0.3360 c6         1 1T7      -0.080400
     12 C12          2.4770     1.1290     0.3520 c6         1 1T7       0.038900
     13 C13          4.9620    -1.8080     0.8060 ca         1 1T7      -0.223900
     14 C14          4.1040    -2.9120     0.5950 ca         1 1T7      -0.045000
     15 C15          2.7390    -2.7130     0.3360 ca         1 1T7      -0.212000
     16 C16          4.4230    -0.5040     0.7060 ca         1 1T7      -0.010000
     17 C17          6.4240    -1.9960     1.0630 ce         1 1T7       0.673800
     18 N18          6.8250    -3.1710     1.5860 nv         1 1T7      -1.075200
     19 N19          7.2820    -1.0730     0.9260 n2         1 1T7      -0.838100
     20 C20          3.4330     2.1180    -0.3340 ca         1 1T7      -0.067300
     21 C21         -1.2190     0.0180    -0.4310 ca         1 1T7      -0.090300
     22 C22         -2.3660     0.2390     0.3560 ca         1 1T7      -0.132000
     23 C23         -3.6630     0.2280    -0.2100 cp         1 1T7       0.055000
     24 C24         -3.7810     0.0100    -1.6040 ca         1 1T7      -0.119000
     25 C25         -2.6480    -0.2150    -2.3980 ca         1 1T7       0.276000
     26 C26         -1.3730    -0.2130    -1.8140 ca         1 1T7      -0.171000
     27 C27          3.8460     3.2890     0.3340 ca         1 1T7      -0.099000
     28 C28          4.7220     4.1920    -0.2940 ca         1 1T7      -0.113000
     29 C29          5.1910     3.9320    -1.5920 ca         1 1T7      -0.115000
     30 C30          4.7850     2.7670    -2.2630 ca         1 1T7      -0.113000
     31 C31          3.9090     1.8630    -1.6370 ca         1 1T7      -0.099000
     32 N32         -2.7770    -0.4270    -3.7470 nv         1 1T7      -1.080000
     33 C33         -5.9980    -1.6280    -0.1180 c          1 1T7       0.709600
     34 O34         -6.9720    -1.8970    -0.8070 o          1 1T7      -0.714000
     35 O35         -5.0700    -2.4050     0.0620 o          1 1T7      -0.714000
     36 H36         -4.0210     2.3350     1.4380 ha         1 1T7       0.090000
     37 H37         -5.9940     2.9240     2.8100 ha         1 1T7       0.086000
     38 H38         -8.0090     1.4600     2.8070 ha         1 1T7       0.087000
     39 H39         -8.0290    -0.6250     1.4490 ha         1 1T7       0.119000
     40 H41          0.0510     0.2130     1.3000 h1         1 1T7       0.039700
     41 H42          1.2020     1.0210    -1.4190 hc         1 1T7       0.061700
     42 H43          0.6100     2.1290    -0.1880 hc         1 1T7       0.061700
     43 H44          2.3270     1.4580     1.3900 hc         1 1T7       0.053700
     44 H45          4.4860    -3.9300     0.6240 ha         1 1T7       0.104000
     45 H46          2.0900    -3.5720     0.1890 ha         1 1T7       0.113000
     46 H47          5.0710     0.3580     0.8540 ha         1 1T7       0.136000
     47 H48          6.0770    -3.7440     1.9590 hn         1 1T7       0.451500
     48 H50          8.2130    -1.4960     0.9950 hn         1 1T7       0.357400
     49 H51         -2.2590     0.4170     1.4230 ha         1 1T7       0.107000
     50 H52         -4.7640     0.0250    -2.0650 ha         1 1T7       0.136000
     51 H53         -0.4980    -0.3890    -2.4330 ha         1 1T7       0.105000
     52 H54          3.4900     3.5020     1.3390 ha         1 1T7       0.115000
     53 H55          5.0370     5.0940     0.2270 ha         1 1T7       0.106000
     54 H56          5.8690     4.6310    -2.0760 ha         1 1T7       0.104000
     55 H57          5.1490     2.5630    -3.2670 ha         1 1T7       0.106000
     56 H58          3.6030     0.9620    -2.1620 ha         1 1T7       0.115000
     57 H60         -3.6990    -0.5700    -4.1550 hn         1 1T7       0.440000
     58 H59         -1.9690    -0.7170    -4.2940 hn         1 1T7       0.440000
     59 H49          7.6700    -3.1460     2.1440 hn         1 1T7       0.451500
     60 H40          0.2880    -2.0900    -0.0530 hn         1 1T7       0.486000
@<TRIPOS>BOND
     1     1     2 ar  
     2     1     6 ar  
     3     1    23 1   
     4     2     3 ar  
     5     2    36 1   
     6     3     4 ar  
     7     3    37 1   
     8     4     5 ar  
     9     4    38 1   
    10     5     6 ar  
    11     5    39 1   
    12     6    33 1   
    13     7     8 ar  
    14     7    12 1   
    15     7    16 ar  
    16     8     9 1   
    17     8    15 ar  
    18     9    10 1   
    19     9    60 1   
    20    10    11 1   
    21    10    21 1   
    22    10    40 1   
    23    11    12 1   
    24    11    41 1   
    25    11    42 1   
    26    12    20 1   
    27    12    43 1   
    28    13    14 ar  
    29    13    16 ar  
    30    13    17 1   
    31    14    15 ar  
    32    14    44 1   
    33    15    45 1   
    34    16    46 1   
    35    17    18 1   
    36    17    19 2   
    37    18    47 1   
    38    18    59 1   
    39    19    48 1   
    40    20    27 ar  
    41    20    31 ar  
    42    21    22 ar  
    43    21    26 ar  
    44    22    23 ar  
    45    22    49 1   
    46    23    24 ar  
    47    24    25 ar  
    48    24    50 1   
    49    25    26 ar  
    50    25    32 1   
    51    26    51 1   
    52    27    28 ar  
    53    27    52 1   
    54    28    29 ar  
    55    28    53 1   
    56    29    30 ar  
    57    29    54 1   
    58    30    31 ar  
    59    30    55 1   
    60    31    56 1   
    61    32    57 1   
    62    32    58 1   
    63    33    34 1   
    64    33    35 1   
@<TRIPOS>SUBSTRUCTURE
     1 1T7         1 TEMP              0 ****  ****    0 ROOT
