@<TRIPOS>MOLECULE
1T8
  107   110     1     0     0
SMALL
No Charge or Current Charge


@<TRIPOS>ATOM
      1 CAR         -6.3220    -2.3550    -1.0570 ca         1 1T8      -0.109000
      2 CAT         -5.0720    -2.4950    -0.4330 ca         1 1T8      -0.105000
      3 CBS         -3.9180    -1.9170    -0.9990 ca         1 1T8      -0.095300
      4 CBF         -2.5820    -1.9960    -0.2550 c3         1 1T8      -0.059100
      5 CAU         -4.0290    -1.2330    -2.2250 ca         1 1T8      -0.105000
      6 CAS         -5.2820    -1.0870    -2.8450 ca         1 1T8      -0.109000
      7 CBQ         -6.4420    -1.6310    -2.2590 ca         1 1T8      -0.072300
      8 CBB         -7.7960    -1.4370    -2.9430 c3         1 1T8      -0.004900
      9 CAM         -8.9950    -1.4740    -2.0080 c2         1 1T8      -0.189200
     10 CAL         -9.3650    -0.5190    -1.1350 c2         1 1T8      -0.247200
     11 CAZ         -8.6510     0.7870    -0.8690 c3         1 1T8       0.135200
     12 NBH         -7.7740     0.6220     0.2860 ns         1 1T8      -0.488900
     13 C           -6.5360     1.2140     0.4220 c          1 1T8       0.579100
     14 O           -6.0930     1.9910    -0.4170 o          1 1T8      -0.614100
     15 CA          -5.7360     0.8070     1.6960 c3         1 1T8       0.042700
     16 CB          -5.8350     1.8700     2.8330 c3         1 1T8      -0.066700
     17 CG1         -7.2990     2.1390     3.2600 c3         1 1T8      -0.088100
     18 CG2         -4.9730     1.5050     4.0680 c3         1 1T8      -0.088100
     19 N           -4.3370     0.5760     1.2840 ns         1 1T8      -0.495900
     20 CBP         -3.5990    -0.5500     1.5750 c          1 1T8       0.579100
     21 OAJ         -3.9300    -1.3310     2.4600 o          1 1T8      -0.616100
     22 CCA         -2.3330    -0.7590     0.6610 c3         1 1T8       0.117000
     23 OAK         -2.1050     0.3770    -0.2130 oh         1 1T8      -0.664000
     24 CBD         -1.0550    -0.9480     1.5280 c3         1 1T8      -0.064400
     25 CBA         -0.7260     0.2390     2.4730 c3         1 1T8      -0.063400
     26 CBC          0.5610     0.0410     3.3110 c3         1 1T8       0.159800
     27 NBY          1.7950    -0.2040     2.5260 n3         1 1T8      -0.458600
     28 NBK          2.0580     0.8230     1.5600 ns         1 1T8      -0.381300
     29 CBO          2.3760     0.5390     0.2300 c          1 1T8       0.612100
     30 OAI          2.2360    -0.5800    -0.2590 o          1 1T8      -0.578100
     31 CBX          2.9950     1.7280    -0.5670 c3         1 1T8       0.048700
     32 CBZ          1.9360     2.6120    -1.3240 c3         1 1T8      -0.043000
     33 CAD          0.9050     3.2000    -0.3230 c3         1 1T8      -0.088767
     34 CAE          2.6460     3.8020    -2.0310 c3         1 1T8      -0.088767
     35 CAF          1.1690     1.7840    -2.3940 c3         1 1T8      -0.088767
     36 NBI          4.0270     1.1870    -1.4830 ns         1 1T8      -0.486900
     37 CBM          5.2930     1.6740    -1.6220 c          1 1T8       0.639100
     38 OAG          5.7460     2.6420    -1.0310 o          1 1T8      -0.552000
     39 OBL          5.9660     0.8980    -2.5150 os         1 1T8      -0.452100
     40 CAA          7.3330     1.2400    -2.8010 c3         1 1T8       0.168900
     41 CBE          2.9930    -0.4970     3.3530 c3         1 1T8       0.191100
     42 CBR          4.2580    -0.7060     2.5200 ca         1 1T8      -0.093300
     43 CAW          5.1970     0.3330     2.3820 ca         1 1T8      -0.085000
     44 CAY          6.3220     0.1700     1.5560 ca         1 1T8      -0.101500
     45 CAV          4.4660    -1.9150     1.8320 ca         1 1T8      -0.085000
     46 CAX          5.5910    -2.0770     1.0050 ca         1 1T8      -0.101500
     47 CBU          6.5400    -1.0360     0.8450 cp         1 1T8      -0.030000
     48 CBT          7.7260    -1.1980    -0.0540 cp         1 1T8      -0.082000
     49 CAQ          7.6590    -1.9700    -1.2400 ca         1 1T8      -0.058000
     50 CAO          8.8000    -2.0810    -2.0510 ca         1 1T8      -0.167000
     51 CAN          9.9800    -1.4250    -1.6680 ca         1 1T8       0.329900
     52 NBG         10.0730    -0.6820    -0.5430 nb         1 1T8      -0.668000
     53 CAP          8.9700    -0.5760     0.2370 ca         1 1T8       0.338900
     54 HAR         -7.1980    -2.8020    -0.5920 ha         1 1T8       0.114000
     55 HAT         -5.0070    -3.0380     0.5070 ha         1 1T8       0.120500
     56 HBF1        -2.5600    -2.9040     0.3600 hc         1 1T8       0.073700
     57 HBF2        -1.7530    -2.1010    -0.9660 hc         1 1T8       0.073700
     58 HAU         -3.1490    -0.8040    -2.7000 ha         1 1T8       0.120500
     59 HAS         -5.3530    -0.5420    -3.7840 ha         1 1T8       0.114000
     60 HBB1        -7.7970    -0.4830    -3.4840 hc         1 1T8       0.058200
     61 HBB2        -7.9170    -2.2040    -3.7180 hc         1 1T8       0.058200
     62 HAM         -9.5960    -2.3820    -2.1010 ha         1 1T8       0.174000
     63 HAL        -10.2610    -0.6590    -0.5270 ha         1 1T8       0.177000
     64 HAZ1        -8.0650     1.0910    -1.7460 h1         1 1T8       0.056700
     65 HAZ2        -9.3780     1.5810    -0.6510 h1         1 1T8       0.056700
     66 HBH         -8.0600    -0.0220     1.0120 hn         1 1T8       0.321500
     67 HA          -6.1570    -0.1400     2.0580 h1         1 1T8       0.081700
     68 HB          -5.4390     2.8140     2.4350 hc         1 1T8       0.066700
     69 H           -3.9500     1.1690     0.5580 hn         1 1T8       0.339500
     70 HG11        -7.7760     1.2180     3.6190 hc         1 1T8       0.037200
     71 HG12        -7.3380     2.8800     4.0670 hc         1 1T8       0.037200
     72 HG13        -7.8910     2.5330     2.4250 hc         1 1T8       0.037200
     73 HG21        -3.9100     1.4460     3.8080 hc         1 1T8       0.037200
     74 HG22        -5.0770     2.2640     4.8520 hc         1 1T8       0.037200
     75 HG23        -5.2800     0.5380     4.4850 hc         1 1T8       0.037200
     76 HAK         -2.6030     0.2050    -1.0400 ho         1 1T8       0.454000
     77 HBD1        -1.1620    -1.8570     2.1320 hc         1 1T8       0.074200
     78 HBD2        -0.2040    -1.1220     0.8600 hc         1 1T8       0.074200
     79 HBA1        -0.6360     1.1630     1.8920 hc         1 1T8       0.050700
     80 HBA2        -1.5590     0.3940     3.1680 hc         1 1T8       0.050700
     81 HBC1         0.6980     0.9310     3.9400 h1         1 1T8       0.038200
     82 HBC2         0.3940    -0.8060     3.9900 h1         1 1T8       0.038200
     83 HBK          2.2200     1.7730     1.8790 hn         1 1T8       0.301500
     84 HBE1         3.1680     0.3290     4.0560 h1         1 1T8       0.046700
     85 HBE2         2.8150    -1.3970     3.9570 h1         1 1T8       0.046700
     86 HBX          3.5010     2.3600     0.1740 h1         1 1T8       0.080700
     87 HBI          3.8170     0.3500    -2.0120 hn         1 1T8       0.342500
     88 HAD1         1.4070     3.7430     0.4880 hc         1 1T8       0.040144
     89 HAD2         0.2250     3.9000    -0.8250 hc         1 1T8       0.040144
     90 HAD3         0.2860     2.4130     0.1210 hc         1 1T8       0.040144
     91 HAE1         3.3270     3.4540    -2.8160 hc         1 1T8       0.040144
     92 HAE2         1.9160     4.4710    -2.5030 hc         1 1T8       0.040144
     93 HAE3         3.2280     4.3920    -1.3120 hc         1 1T8       0.040144
     94 HAF1         0.6130     0.9570    -1.9360 hc         1 1T8       0.040144
     95 HAF2         0.4440     2.4120    -2.9260 hc         1 1T8       0.040144
     96 HAF3         1.8530     1.3620    -3.1400 hc         1 1T8       0.040144
     97 HAA1         7.9420     1.2150    -1.8880 h1         1 1T8       0.047700
     98 HAA2         7.7630     0.5290    -3.5170 h1         1 1T8       0.047700
     99 HAA3         7.4010     2.2460    -3.2360 h1         1 1T8       0.047700
    100 HAW          5.0450     1.2790     2.8980 ha         1 1T8       0.119500
    101 HAV          3.7410    -2.7220     1.9210 ha         1 1T8       0.119500
    102 HAY          7.0150     1.0000     1.4480 ha         1 1T8       0.119000
    103 HAX          5.7260    -3.0220     0.4860 ha         1 1T8       0.119000
    104 HAQ          6.7340    -2.4600    -1.5360 ha         1 1T8       0.126000
    105 HAP          9.0890     0.0230     1.1380 h4         1 1T8       0.021100
    106 HAO          8.7750    -2.6630    -2.9680 ha         1 1T8       0.125000
    107 HAN         10.8780    -1.4950    -2.2800 h4         1 1T8       0.019100
@<TRIPOS>BOND
     1     1     2 ar  
     2     1     7 ar  
     3     1    54 1   
     4     2     3 ar  
     5     2    55 1   
     6     3     4 1   
     7     3     5 ar  
     8     4    22 1   
     9     4    56 1   
    10     4    57 1   
    11     5     6 ar  
    12     5    58 1   
    13     6     7 ar  
    14     6    59 1   
    15     7     8 1   
    16     8     9 1   
    17     8    60 1   
    18     8    61 1   
    19     9    10 2   
    20     9    62 1   
    21    10    11 1   
    22    10    63 1   
    23    11    12 1   
    24    11    64 1   
    25    11    65 1   
    26    12    13 1   
    27    12    66 1   
    28    13    14 2   
    29    13    15 1   
    30    15    16 1   
    31    15    19 1   
    32    15    67 1   
    33    16    17 1   
    34    16    18 1   
    35    16    68 1   
    36    17    70 1   
    37    17    71 1   
    38    17    72 1   
    39    18    73 1   
    40    18    74 1   
    41    18    75 1   
    42    19    20 1   
    43    19    69 1   
    44    20    21 2   
    45    20    22 1   
    46    22    23 1   
    47    22    24 1   
    48    23    76 1   
    49    24    25 1   
    50    24    77 1   
    51    24    78 1   
    52    25    26 1   
    53    25    79 1   
    54    25    80 1   
    55    26    27 1   
    56    26    81 1   
    57    26    82 1   
    58    27    28 1   
    59    27    41 1   
    60    28    29 1   
    61    28    83 1   
    62    29    30 2   
    63    29    31 1   
    64    31    32 1   
    65    31    36 1   
    66    31    86 1   
    67    32    33 1   
    68    32    34 1   
    69    32    35 1   
    70    33    88 1   
    71    33    89 1   
    72    33    90 1   
    73    34    91 1   
    74    34    92 1   
    75    34    93 1   
    76    35    94 1   
    77    35    95 1   
    78    35    96 1   
    79    36    37 1   
    80    36    87 1   
    81    37    38 2   
    82    37    39 1   
    83    39    40 1   
    84    40    97 1   
    85    40    98 1   
    86    40    99 1   
    87    41    42 1   
    88    41    84 1   
    89    41    85 1   
    90    42    43 ar  
    91    42    45 ar  
    92    43    44 ar  
    93    43   100 1   
    94    44    47 ar  
    95    44   102 1   
    96    45    46 ar  
    97    45   101 1   
    98    46    47 ar  
    99    46   103 1   
   100    47    48 1   
   101    48    49 ar  
   102    48    53 ar  
   103    49    50 ar  
   104    49   104 1   
   105    50    51 ar  
   106    50   106 1   
   107    51    52 ar  
   108    51   107 1   
   109    52    53 ar  
   110    53   105 1   
@<TRIPOS>SUBSTRUCTURE
     1 1T8         1 TEMP              0 ****  ****    0 ROOT
