@<TRIPOS>MOLECULE
1T8
  107   110     1     0     0
SMALL
abcg2


@<TRIPOS>ATOM
      1 CAR         -5.9770    -2.5320    -1.1390 ca         1 1T8      -0.109000
      2 CAT         -4.7800    -2.6090    -0.4490 ca         1 1T8      -0.105000
      3 CBS         -3.6290    -1.9830    -0.9250 ca         1 1T8      -0.095300
      4 CBF         -2.3680    -1.9750    -0.1070 c3         1 1T8      -0.059100
      5 CAU         -3.7160    -1.3110    -2.1430 ca         1 1T8      -0.105000
      6 CAS         -4.9220    -1.2220    -2.8280 ca         1 1T8      -0.109000
      7 CBQ         -6.0760    -1.8180    -2.3310 ca         1 1T8      -0.072300
      8 CBB         -7.3830    -1.7150    -3.0830 c3         1 1T8      -0.004900
      9 CAM         -8.6020    -1.6260    -2.2000 c2         1 1T8      -0.189200
     10 CAL         -8.8520    -0.6530    -1.3280 c2         1 1T8      -0.247200
     11 CAZ         -7.9670     0.5320    -1.0970 c3         1 1T8       0.135200
     12 NBH         -7.2400     0.3900     0.1540 ns         1 1T8      -0.488900
     13 C           -6.3010     1.2640     0.5250 c          1 1T8       0.579100
     14 O           -6.0550     2.2860    -0.1040 o          1 1T8      -0.614100
     15 CA          -5.5020     0.9060     1.7770 c3         1 1T8       0.042700
     16 CB          -5.5630     2.0300     2.8180 c3         1 1T8      -0.066700
     17 CG1         -7.0080     2.3060     3.2230 c3         1 1T8      -0.088100
     18 CG2         -4.7180     1.6860     4.0390 c3         1 1T8      -0.088100
     19 N           -4.1590     0.6320     1.3200 ns         1 1T8      -0.495900
     20 CBP         -3.4890    -0.5030     1.5620 c          1 1T8       0.579100
     21 OAJ         -3.8590    -1.3640     2.3470 o          1 1T8      -0.616100
     22 CCA         -2.2020    -0.6910     0.7400 c3         1 1T8       0.117000
     23 OAK         -1.9510     0.4280    -0.0820 oh         1 1T8      -0.664000
     24 CBD         -1.0060    -0.8510     1.6760 c3         1 1T8      -0.064400
     25 CBA         -0.7030     0.3740     2.5300 c3         1 1T8      -0.063400
     26 CBC          0.5670     0.2180     3.3510 c3         1 1T8       0.159800
     27 NBY          1.7410    -0.0480     2.5330 n3         1 1T8      -0.458600
     28 NBK          2.0010     0.9730     1.6440 ns         1 1T8      -0.381300
     29 CBO          2.1770     0.7250     0.3290 c          1 1T8       0.612100
     30 OAI          1.9560    -0.3430    -0.2060 o          1 1T8      -0.578100
     31 CBX          2.7240     1.9080    -0.4710 c3         1 1T8       0.048700
     32 CBZ          1.6390     2.6700    -1.2780 c3         1 1T8      -0.043000
     33 CAD          0.6180     3.2640    -0.3070 c3         1 1T8      -0.088767
     34 CAE          2.3250     3.8090    -2.0340 c3         1 1T8      -0.088767
     35 CAF          0.9150     1.7620    -2.2730 c3         1 1T8      -0.088767
     36 NBI          3.7820     1.3840    -1.3030 ns         1 1T8      -0.486900
     37 CBM          5.0460     1.8480    -1.2540 c          1 1T8       0.639100
     38 OAG          5.4190     2.8200    -0.6310 o          1 1T8      -0.552000
     39 OBL          5.8500     1.1020    -2.0170 os         1 1T8      -0.452100
     40 CAA          7.2130     1.4980    -2.0890 c3         1 1T8       0.168900
     41 CBE          2.9300    -0.3480     3.3260 c3         1 1T8       0.191100
     42 CBR          4.0930    -0.6630     2.4280 ca         1 1T8      -0.093300
     43 CAW          5.1460     0.2300     2.2790 ca         1 1T8      -0.085000
     44 CAY          6.1780    -0.0260     1.3870 ca         1 1T8      -0.101500
     45 CAV          4.0940    -1.8260     1.6630 ca         1 1T8      -0.085000
     46 CAX          5.1210    -2.0870     0.7740 ca         1 1T8      -0.101500
     47 CBU          6.1770    -1.1870     0.6170 cp         1 1T8      -0.030000
     48 CBT          7.2560    -1.4580    -0.3470 cp         1 1T8      -0.082000
     49 CAQ          7.0000    -2.0200    -1.5950 ca         1 1T8      -0.058000
     50 CAO          8.0500    -2.2390    -2.4700 ca         1 1T8      -0.167000
     51 CAN          9.3300    -1.8800    -2.0740 ca         1 1T8       0.329900
     52 NBG          9.5960    -1.3460    -0.8880 nb         1 1T8      -0.668000
     53 CAP          8.5840    -1.1480    -0.0540 ca         1 1T8       0.338900
     54 HAR         -6.8520    -3.0230    -0.7300 ha         1 1T8       0.114000
     55 HAT         -4.7400    -3.1610     0.4820 ha         1 1T8       0.120500
     56 HBF1        -2.3490    -2.8400     0.5570 hc         1 1T8       0.073700
     57 HBF2        -1.4870    -2.0500    -0.7520 hc         1 1T8       0.073700
     58 HAU         -2.8320    -0.8600    -2.5820 ha         1 1T8       0.120500
     59 HAS         -4.9600    -0.6740    -3.7630 ha         1 1T8       0.114000
     60 HBB1        -7.3390    -0.8480    -3.7480 hc         1 1T8       0.058200
     61 HBB2        -7.4870    -2.5820    -3.7400 hc         1 1T8       0.058200
     62 HAM         -9.3230    -2.4310    -2.2820 ha         1 1T8       0.174000
     63 HAL         -9.7570    -0.7040    -0.7310 ha         1 1T8       0.177000
     64 HAZ1        -7.2570     0.6550    -1.9180 h1         1 1T8       0.056700
     65 HAZ2        -8.5740     1.4400    -1.0620 h1         1 1T8       0.056700
     66 HBH         -7.3320    -0.4740     0.6630 hn         1 1T8       0.321500
     67 HA          -5.8840    -0.0120     2.2300 h1         1 1T8       0.081700
     68 HB          -5.1540     2.9360     2.3580 hc         1 1T8       0.066700
     69 H           -3.7220     1.3100     0.7140 hn         1 1T8       0.339500
     70 HG11        -7.4820     1.4120     3.6340 hc         1 1T8       0.037200
     71 HG12        -7.0490     3.0820     3.9880 hc         1 1T8       0.037200
     72 HG13        -7.6170     2.6510     2.3850 hc         1 1T8       0.037200
     73 HG21        -3.6720     1.5230     3.7790 hc         1 1T8       0.037200
     74 HG22        -4.7530     2.4990     4.7640 hc         1 1T8       0.037200
     75 HG23        -5.0860     0.7840     4.5320 hc         1 1T8       0.037200
     76 HAK         -2.4720     0.3690    -0.8910 ho         1 1T8       0.454000
     77 HBD1        -1.1870    -1.7090     2.3280 hc         1 1T8       0.074200
     78 HBD2        -0.1340    -1.0970     1.0680 hc         1 1T8       0.074200
     79 HBA1        -0.6320     1.2700     1.9100 hc         1 1T8       0.050700
     80 HBA2        -1.5170     0.5540     3.2400 hc         1 1T8       0.050700
     81 HBC1         0.7070     1.1080     3.9840 h1         1 1T8       0.038200
     82 HBC2         0.4620    -0.6320     4.0300 h1         1 1T8       0.038200
     83 HBK          2.2870     1.8720     2.0170 hn         1 1T8       0.301500
     84 HBE1         3.1880     0.4830     4.0000 h1         1 1T8       0.046700
     85 HBE2         2.6890    -1.2060     3.9580 h1         1 1T8       0.046700
     86 HBX          3.1820     2.6300     0.2080 h1         1 1T8       0.080700
     87 HBI          3.6130     0.5020    -1.7600 hn         1 1T8       0.342500
     88 HAD1         1.0960     3.9020     0.4400 hc         1 1T8       0.040144
     89 HAD2        -0.1000     3.8800    -0.8510 hc         1 1T8       0.040144
     90 HAD3         0.0490     2.4940     0.2140 hc         1 1T8       0.040144
     91 HAE1         3.0200     3.4350    -2.7860 hc         1 1T8       0.040144
     92 HAE2         1.5810     4.4180    -2.5490 hc         1 1T8       0.040144
     93 HAE3         2.8790     4.4630    -1.3570 hc         1 1T8       0.040144
     94 HAF1         0.2950     1.0210    -1.7700 hc         1 1T8       0.040144
     95 HAF2         0.2590     2.3630    -2.9070 hc         1 1T8       0.040144
     96 HAF3         1.6110     1.2400    -2.9330 hc         1 1T8       0.040144
     97 HAA1         7.6840     1.5150    -1.1070 h1         1 1T8       0.047700
     98 HAA2         7.7080     0.7540    -2.7070 h1         1 1T8       0.047700
     99 HAA3         7.3220     2.4790    -2.5530 h1         1 1T8       0.047700
    100 HAW          5.1580     1.1480     2.8550 ha         1 1T8       0.119500
    101 HAV          3.2770    -2.5300     1.7590 ha         1 1T8       0.119500
    102 HAY          6.9720     0.7020     1.2730 ha         1 1T8       0.119000
    103 HAX          5.1050    -3.0050     0.2010 ha         1 1T8       0.119000
    104 HAQ          5.9870    -2.2650    -1.8870 ha         1 1T8       0.126000
    105 HAP          8.8390    -0.7290     0.9140 h4         1 1T8       0.021100
    106 HAO          7.8800    -2.6690    -3.4480 ha         1 1T8       0.125000
    107 HAN         10.1720    -2.0300    -2.7400 h4         1 1T8       0.019100
@<TRIPOS>BOND
     1     1     2 ar  
     2     1     7 ar  
     3     1    54 1   
     4     2     3 ar  
     5     2    55 1   
     6     3     4 1   
     7     3     5 ar  
     8     4    22 1   
     9     4    56 1   
    10     4    57 1   
    11     5     6 ar  
    12     5    58 1   
    13     6     7 ar  
    14     6    59 1   
    15     7     8 1   
    16     8     9 1   
    17     8    60 1   
    18     8    61 1   
    19     9    10 2   
    20     9    62 1   
    21    10    11 1   
    22    10    63 1   
    23    11    12 1   
    24    11    64 1   
    25    11    65 1   
    26    12    13 1   
    27    12    66 1   
    28    13    14 2   
    29    13    15 1   
    30    15    16 1   
    31    15    19 1   
    32    15    67 1   
    33    16    17 1   
    34    16    18 1   
    35    16    68 1   
    36    17    70 1   
    37    17    71 1   
    38    17    72 1   
    39    18    73 1   
    40    18    74 1   
    41    18    75 1   
    42    19    20 1   
    43    19    69 1   
    44    20    21 2   
    45    20    22 1   
    46    22    23 1   
    47    22    24 1   
    48    23    76 1   
    49    24    25 1   
    50    24    77 1   
    51    24    78 1   
    52    25    26 1   
    53    25    79 1   
    54    25    80 1   
    55    26    27 1   
    56    26    81 1   
    57    26    82 1   
    58    27    28 1   
    59    27    41 1   
    60    28    29 1   
    61    28    83 1   
    62    29    30 2   
    63    29    31 1   
    64    31    32 1   
    65    31    36 1   
    66    31    86 1   
    67    32    33 1   
    68    32    34 1   
    69    32    35 1   
    70    33    88 1   
    71    33    89 1   
    72    33    90 1   
    73    34    91 1   
    74    34    92 1   
    75    34    93 1   
    76    35    94 1   
    77    35    95 1   
    78    35    96 1   
    79    36    37 1   
    80    36    87 1   
    81    37    38 2   
    82    37    39 1   
    83    39    40 1   
    84    40    97 1   
    85    40    98 1   
    86    40    99 1   
    87    41    42 1   
    88    41    84 1   
    89    41    85 1   
    90    42    43 ar  
    91    42    45 ar  
    92    43    44 ar  
    93    43   100 1   
    94    44    47 ar  
    95    44   102 1   
    96    45    46 ar  
    97    45   101 1   
    98    46    47 ar  
    99    46   103 1   
   100    47    48 1   
   101    48    49 ar  
   102    48    53 ar  
   103    49    50 ar  
   104    49   104 1   
   105    50    51 ar  
   106    50   106 1   
   107    51    52 ar  
   108    51   107 1   
   109    52    53 ar  
   110    53   105 1   
@<TRIPOS>SUBSTRUCTURE
     1 1T8         1 TEMP              0 ****  ****    0 ROOT
