@<TRIPOS>MOLECULE
1TA
   62    66     1     0     0
SMALL
abcg2


@<TRIPOS>ATOM
      1 C02         -5.2830     0.7110     1.3410 c          1 1TA       0.568500
      2 C03         -4.7580    -0.6120     1.6950 ce         1 1TA      -0.284200
      3 C04         -3.7780    -1.1800     0.9940 c2         1 1TA      -0.152200
      4 C05         -3.1440    -0.5710    -0.2170 c6         1 1TA      -0.005600
      5 C06         -3.4580    -1.5160    -1.4020 c3         1 1TA      -0.070100
      6 C07         -3.7180     0.7850    -0.5530 c2         1 1TA      -0.044400
      7 C08         -3.1150     1.4640    -1.7390 c6         1 1TA      -0.047200
      8 C09         -1.6020     1.6040    -1.5770 c6         1 1TA      -0.069400
      9 C10         -0.9200     0.2970    -1.1690 c6         1 1TA      -0.060700
     10 C11         -1.6190    -0.3330     0.0460 c6         1 1TA       0.235000
     11 C13         -0.8640    -1.5290     0.6620 c6         1 1TA       0.156300
     12 C15          0.6370    -1.2580     0.8460 c6         1 1TA      -0.096400
     13 C16          1.3090    -0.7160    -0.4130 c5         1 1TA      -0.022000
     14 C17          1.3710    -1.7710    -1.5250 c3         1 1TA      -0.099100
     15 C18          0.5440     0.5470    -0.8370 c5         1 1TA      -0.070700
     16 C19          1.4480     1.1760    -1.8860 c5         1 1TA      -0.076400
     17 C20          2.8280     1.0560    -1.2380 c5         1 1TA       0.156300
     18 C21          2.7420    -0.1160    -0.2100 c5         1 1TA       0.044000
     19 C23          3.4560     1.7880     0.8600 c5         1 1TA       0.397000
     20 C24          4.9740     1.6910     0.9690 c3         1 1TA      -0.112100
     21 C25          2.8820     2.7470     1.8820 c3         1 1TA      -0.112100
     22 C27          3.8550    -1.1520    -0.3440 c          1 1TA       0.567100
     23 C28          4.2140    -1.9160     0.9080 c3         1 1TA       0.062600
     24 C31         -4.6980     1.3470     0.1640 ce         1 1TA      -0.289200
     25 F12         -1.5940     0.6300     1.0700 f          1 1TA      -0.264000
     26 O01         -6.1690     1.2460     1.9930 o          1 1TA      -0.527100
     27 O14         -1.1200    -2.6690    -0.1190 oh         1 1TA      -0.659000
     28 O22          2.8420     0.5240     1.0380 os         1 1TA      -0.466000
     29 O26          3.0680     2.1930    -0.4290 os         1 1TA      -0.469000
     30 O29          5.0810    -2.9570     0.5720 oh         1 1TA      -0.634000
     31 O30          4.4120    -1.3650    -1.3930 o          1 1TA      -0.482100
     32 H031        -5.2000    -1.1180     2.5450 ha         1 1TA       0.199000
     33 H041        -3.4360    -2.1720     1.2640 ha         1 1TA       0.183000
     34 H062        -4.5210    -1.4480    -1.6340 hc         1 1TA       0.047367
     35 H063        -2.9050    -1.2520    -2.3010 hc         1 1TA       0.047367
     36 H061        -3.2280    -2.5490    -1.1610 hc         1 1TA       0.047367
     37 H081        -3.3340     0.8840    -2.6410 hc         1 1TA       0.056200
     38 H082        -3.5690     2.4450    -1.8840 hc         1 1TA       0.056200
     39 H092        -1.1730     1.9550    -2.5170 hc         1 1TA       0.054200
     40 H091        -1.3930     2.3740    -0.8300 hc         1 1TA       0.054200
     41 H101        -0.9940    -0.4060    -2.0040 hc         1 1TA       0.069700
     42 H131        -1.2750    -1.6690     1.6730 h1         1 1TA       0.046700
     43 H152         0.7480    -0.5380     1.6580 hc         1 1TA       0.060700
     44 H151         1.1010    -2.1890     1.1920 hc         1 1TA       0.060700
     45 H172         0.3830    -2.0420    -1.8840 hc         1 1TA       0.048700
     46 H171         1.9510    -1.4430    -2.3860 hc         1 1TA       0.048700
     47 H173         1.8270    -2.6940    -1.1600 hc         1 1TA       0.048700
     48 H181         0.5540     1.2220     0.0270 hc         1 1TA       0.076700
     49 H192         1.4170     0.6260    -2.8290 hc         1 1TA       0.064200
     50 H191         1.2100     2.2160    -2.1090 hc         1 1TA       0.064200
     51 H201         3.6300     0.9270    -1.9680 h1         1 1TA       0.087700
     52 H241         5.4080     1.0360     0.2110 hc         1 1TA       0.053367
     53 H243         5.4200     2.6770     0.8350 hc         1 1TA       0.053367
     54 H242         5.2680     1.3200     1.9500 hc         1 1TA       0.053367
     55 H251         3.1550     2.4410     2.8910 hc         1 1TA       0.053367
     56 H253         3.2740     3.7510     1.7220 hc         1 1TA       0.053367
     57 H252         1.7940     2.7840     1.8120 hc         1 1TA       0.053367
     58 H282         4.6600    -1.2080     1.6200 h1         1 1TA       0.045700
     59 H281         3.2880    -2.2680     1.3830 h1         1 1TA       0.045700
     60 H311        -5.0900     2.3200    -0.1130 ha         1 1TA       0.198000
     61 H141        -0.6280    -3.4060     0.2560 ho         1 1TA       0.449000
     62 H291         5.3170    -3.4140     1.3850 ho         1 1TA       0.446000
@<TRIPOS>BOND
     1     1     2 1   
     2     1    24 1   
     3     1    26 2   
     4     2     3 2   
     5     2    32 1   
     6     3     4 1   
     7     3    33 1   
     8     4     5 1   
     9     4     6 1   
    10     4    10 1   
    11     5    34 1   
    12     5    35 1   
    13     5    36 1   
    14     6     7 1   
    15     6    24 2   
    16     7     8 1   
    17     7    37 1   
    18     7    38 1   
    19     8     9 1   
    20     8    39 1   
    21     8    40 1   
    22     9    10 1   
    23     9    15 1   
    24     9    41 1   
    25    10    11 1   
    26    10    25 1   
    27    11    12 1   
    28    11    27 1   
    29    11    42 1   
    30    12    13 1   
    31    12    43 1   
    32    12    44 1   
    33    13    14 1   
    34    13    15 1   
    35    13    18 1   
    36    14    45 1   
    37    14    46 1   
    38    14    47 1   
    39    15    16 1   
    40    15    48 1   
    41    16    17 1   
    42    16    49 1   
    43    16    50 1   
    44    17    18 1   
    45    17    29 1   
    46    17    51 1   
    47    18    22 1   
    48    18    28 1   
    49    19    20 1   
    50    19    21 1   
    51    19    28 1   
    52    19    29 1   
    53    20    52 1   
    54    20    53 1   
    55    20    54 1   
    56    21    55 1   
    57    21    56 1   
    58    21    57 1   
    59    22    23 1   
    60    22    31 2   
    61    23    30 1   
    62    23    58 1   
    63    23    59 1   
    64    24    60 1   
    65    27    61 1   
    66    30    62 1   
@<TRIPOS>SUBSTRUCTURE
     1 1TA         1 TEMP              0 ****  ****    0 ROOT
