@<TRIPOS>MOLECULE
1TA
   62    66     1     0     0
SMALL
No Charge or Current Charge


@<TRIPOS>ATOM
      1 C02         -5.4500     0.7600     1.2750 c          1 1TA       0.568500
      2 C03         -4.8750    -0.5240     1.7380 ce         1 1TA      -0.284200
      3 C04         -3.8510    -1.1450     1.1110 c2         1 1TA      -0.152200
      4 C05         -3.1780    -0.6070    -0.1610 c6         1 1TA      -0.005600
      5 C06         -3.5490    -1.6310    -1.2870 c3         1 1TA      -0.070100
      6 C07         -3.7890     0.7450    -0.5890 c2         1 1TA      -0.044400
      7 C08         -3.1400     1.4070    -1.8000 c6         1 1TA      -0.047200
      8 C09         -1.6270     1.6080    -1.5770 c6         1 1TA      -0.069400
      9 C10         -0.9130     0.2830    -1.1710 c6         1 1TA      -0.060700
     10 C11         -1.6150    -0.3970     0.0720 c6         1 1TA       0.235000
     11 C13         -0.8170    -1.6740     0.5900 c6         1 1TA       0.156300
     12 C15          0.7110    -1.3900     0.7830 c6         1 1TA      -0.096400
     13 C16          1.3980    -0.7390    -0.4680 c5         1 1TA      -0.022000
     14 C17          1.4910    -1.8140    -1.6140 c3         1 1TA      -0.099100
     15 C18          0.5950     0.5440    -0.8590 c5         1 1TA      -0.070700
     16 C19          1.5010     1.1620    -1.9630 c5         1 1TA      -0.076400
     17 C20          2.9060     1.0990    -1.2780 c5         1 1TA       0.156300
     18 C21          2.8190    -0.0710    -0.2190 c5         1 1TA       0.044000
     19 C23          3.5060     1.8850     0.8200 c5         1 1TA       0.397000
     20 C24          5.0450     1.7310     0.8190 c3         1 1TA      -0.112100
     21 C25          2.8940     3.3030     2.3150 c3         1 1TA      -0.112100
     22 C27          4.0070    -1.0920    -0.3490 c          1 1TA       0.567100
     23 C28          4.2380    -2.0310     0.8690 c3         1 1TA       0.062600
     24 C31         -4.8140     1.3360     0.0680 ce         1 1TA      -0.289200
     25 F12         -1.5320     0.5360     1.1370 f          1 1TA      -0.264000
     26 O01         -6.3790     1.3080     1.8500 o          1 1TA      -0.527100
     27 O14         -0.9960    -2.8490    -0.2180 oh         1 1TA      -0.659000
     28 O22          2.8400     0.6350     1.0560 os         1 1TA      -0.466000
     29 O26          3.0170     2.2940    -0.4640 os         1 1TA      -0.469000
     30 O29          4.2140    -3.4380     0.5190 oh         1 1TA      -0.634000
     31 O30          4.7460    -1.1580    -1.3280 o          1 1TA      -0.482100
     32 H031        -5.3330    -0.9490     2.6300 ha         1 1TA       0.199000
     33 H041        -3.4800    -2.0990     1.4920 ha         1 1TA       0.183000
     34 H062        -4.6120    -1.5500    -1.5480 hc         1 1TA       0.047367
     35 H063        -2.9780    -1.4760    -2.2080 hc         1 1TA       0.047367
     36 H061        -3.3930    -2.6690    -0.9750 hc         1 1TA       0.047367
     37 H081        -3.3100     0.8010    -2.7000 hc         1 1TA       0.056200
     38 H082        -3.6080     2.3800    -2.0030 hc         1 1TA       0.056200
     39 H092        -1.1820     2.0130    -2.4950 hc         1 1TA       0.054200
     40 H091        -1.4770     2.3700    -0.8000 hc         1 1TA       0.054200
     41 H101        -0.9780    -0.4020    -2.0240 hc         1 1TA       0.069700
     42 H131        -1.2060    -1.8990     1.5940 h1         1 1TA       0.046700
     43 H152         0.8140    -0.7190     1.6460 hc         1 1TA       0.060700
     44 H151         1.2310    -2.3130     1.0710 hc         1 1TA       0.060700
     45 H172         0.5250    -2.0330    -2.0780 hc         1 1TA       0.048700
     46 H171         2.1550    -1.5060    -2.4300 hc         1 1TA       0.048700
     47 H173         1.8870    -2.7640    -1.2370 hc         1 1TA       0.048700
     48 H181         0.5660     1.2410    -0.0110 hc         1 1TA       0.076700
     49 H192         1.4710     0.5990    -2.9030 hc         1 1TA       0.064200
     50 H191         1.2170     2.1910    -2.2100 hc         1 1TA       0.064200
     51 H201         3.7480     1.0410    -1.9800 h1         1 1TA       0.087700
     52 H241         5.4310     1.2980    -0.1090 hc         1 1TA       0.053367
     53 H243         5.5190     2.7120     0.9400 hc         1 1TA       0.053367
     54 H242         5.3730     1.1040     1.6560 hc         1 1TA       0.053367
     55 H251         3.2140     2.9770     3.3100 hc         1 1TA       0.053367
     56 H253         3.3360     4.2860     2.1200 hc         1 1TA       0.053367
     57 H252         1.8030     3.4100     2.3220 hc         1 1TA       0.053367
     58 H282         5.2060    -1.7580     1.3070 h1         1 1TA       0.045700
     59 H281         3.4710    -1.8160     1.6240 h1         1 1TA       0.045700
     60 H311        -5.2190     2.2920    -0.2560 ha         1 1TA       0.198000
     61 H141        -0.5320    -3.5840     0.2380 ho         1 1TA       0.449000
     62 H291         4.4200    -3.9510     1.3330 ho         1 1TA       0.446000
@<TRIPOS>BOND
     1     1     2 1   
     2     1    24 1   
     3     1    26 2   
     4     2     3 2   
     5     2    32 1   
     6     3     4 1   
     7     3    33 1   
     8     4     5 1   
     9     4     6 1   
    10     4    10 1   
    11     5    34 1   
    12     5    35 1   
    13     5    36 1   
    14     6     7 1   
    15     6    24 2   
    16     7     8 1   
    17     7    37 1   
    18     7    38 1   
    19     8     9 1   
    20     8    39 1   
    21     8    40 1   
    22     9    10 1   
    23     9    15 1   
    24     9    41 1   
    25    10    11 1   
    26    10    25 1   
    27    11    12 1   
    28    11    27 1   
    29    11    42 1   
    30    12    13 1   
    31    12    43 1   
    32    12    44 1   
    33    13    14 1   
    34    13    15 1   
    35    13    18 1   
    36    14    45 1   
    37    14    46 1   
    38    14    47 1   
    39    15    16 1   
    40    15    48 1   
    41    16    17 1   
    42    16    49 1   
    43    16    50 1   
    44    17    18 1   
    45    17    29 1   
    46    17    51 1   
    47    18    22 1   
    48    18    28 1   
    49    19    20 1   
    50    19    21 1   
    51    19    28 1   
    52    19    29 1   
    53    20    52 1   
    54    20    53 1   
    55    20    54 1   
    56    21    55 1   
    57    21    56 1   
    58    21    57 1   
    59    22    23 1   
    60    22    31 2   
    61    23    30 1   
    62    23    58 1   
    63    23    59 1   
    64    24    60 1   
    65    27    61 1   
    66    30    62 1   
@<TRIPOS>SUBSTRUCTURE
     1 1TA         1 TEMP              0 ****  ****    0 ROOT
