@<TRIPOS>MOLECULE
1TB
   44    45     1     0     0
SMALL
No Charge or Current Charge


@<TRIPOS>ATOM
      1 C4          -2.7180    -2.4350     2.3940 ca         1 1TB      -0.109000
      2 C5          -3.1640    -1.3530     3.1650 ca         1 1TB      -0.062000
      3 C6          -3.3060    -0.0870     2.5780 ca         1 1TB      -0.092000
      4 C1          -3.0060     0.1240     1.2130 ca         1 1TB      -0.039600
      5 C2          -2.5720    -0.9880     0.4250 ca         1 1TB      -0.252500
      6 C3          -2.4250    -2.2570     1.0330 ca         1 1TB      -0.001000
      7 C11         -3.1500     1.5340     0.6710 c          1 1TB       0.614700
      8 O12         -4.3160     2.1400     1.0680 os         1 1TB      -0.418100
      9 C13         -4.5620     3.4890     0.6280 c3         1 1TB       0.150900
     10 O11         -2.2970     2.0910    -0.0090 o          1 1TB      -0.499000
     11 S7          -2.2320    -0.8440    -1.3520 sy         1 1TB       1.192300
     12 N8          -0.8120     0.0240    -1.4480 ns         1 1TB      -0.583300
     13 C9           0.3850    -0.3190    -0.9180 c          1 1TB       0.704100
     14 O7A         -1.9460    -2.1770    -1.8950 o          1 1TB      -0.519500
     15 O7B         -3.2500     0.0180    -1.9610 o          1 1TB      -0.519500
     16 O9           0.5940    -1.4180    -0.4310 o          1 1TB      -0.528100
     17 N10          1.3810     0.6700    -0.9570 n          1 1TB      -0.409300
     18 C15          2.6700     0.4240    -0.4190 ca         1 1TB       0.323900
     19 N1           2.8900     0.8170     0.8490 nb         1 1TB      -0.296000
     20 C14          4.1300     0.5650     1.3070 ca         1 1TB       0.227300
     21 N5           5.1070    -0.0310     0.5960 nb         1 1TB      -0.322000
     22 C8           4.7840    -0.3840    -0.6700 ca         1 1TB       0.409300
     23 N3           3.5720    -0.1720    -1.2200 nb         1 1TB      -0.254000
     24 C10          1.1250     2.0090    -1.5390 c3         1 1TB       0.093300
     25 O4           5.7260    -0.9960    -1.4680 os         1 1TB      -0.422300
     26 C12          7.0550    -1.2740    -0.9820 c3         1 1TB       0.164900
     27 C7           4.4460     0.9720     2.7330 c3         1 1TB      -0.142400
     28 H4          -2.6030    -3.4160     2.8500 ha         1 1TB       0.127000
     29 H5          -3.3930    -1.4940     4.2190 ha         1 1TB       0.123000
     30 H6          -3.6400     0.7440     3.1960 ha         1 1TB       0.128000
     31 H3          -2.0870    -3.1170     0.4570 ha         1 1TB       0.159000
     32 H131        -4.5930     3.5440    -0.4680 h1         1 1TB       0.054367
     33 H132        -5.5250     3.8470     1.0140 h1         1 1TB       0.054367
     34 H133        -3.7780     4.1680     0.9890 h1         1 1TB       0.054367
     35 HN8         -0.9850     0.9720    -1.7270 hn         1 1TB       0.360500
     36 H101         0.3440     2.5260    -0.9660 h1         1 1TB       0.059367
     37 H102         2.0390     2.6160    -1.5050 h1         1 1TB       0.059367
     38 H103         0.8130     1.9130    -2.5880 h1         1 1TB       0.059367
     39 H5'1         7.5680    -0.3470    -0.6920 h1         1 1TB       0.053033
     40 H5'2         7.0230    -1.9420    -0.1120 h1         1 1TB       0.053033
     41 H5'3         7.6530    -1.7620    -1.7620 h1         1 1TB       0.053033
     42 H7'1         4.1810     0.1710     3.4320 hc         1 1TB       0.064700
     43 H7'2         5.5140     1.1890     2.8600 hc         1 1TB       0.064700
     44 H7'3         3.8900     1.8710     3.0240 hc         1 1TB       0.064700
@<TRIPOS>BOND
     1     1     2 ar  
     2     1     6 ar  
     3     1    28 1   
     4     2     3 ar  
     5     2    29 1   
     6     3     4 ar  
     7     3    30 1   
     8     4     5 ar  
     9     4     7 1   
    10     5     6 ar  
    11     5    11 1   
    12     6    31 1   
    13     7     8 1   
    14     7    10 2   
    15     8     9 1   
    16     9    32 1   
    17     9    33 1   
    18     9    34 1   
    19    11    12 1   
    20    11    14 2   
    21    11    15 2   
    22    12    13 1   
    23    12    35 1   
    24    13    16 2   
    25    13    17 1   
    26    17    18 1   
    27    17    24 1   
    28    18    19 ar  
    29    18    23 ar  
    30    19    20 ar  
    31    20    21 ar  
    32    20    27 1   
    33    21    22 ar  
    34    22    23 ar  
    35    22    25 1   
    36    24    36 1   
    37    24    37 1   
    38    24    38 1   
    39    25    26 1   
    40    26    39 1   
    41    26    40 1   
    42    26    41 1   
    43    27    42 1   
    44    27    43 1   
    45    27    44 1   
@<TRIPOS>SUBSTRUCTURE
     1 1TB         1 TEMP              0 ****  ****    0 ROOT
