@<TRIPOS>MOLECULE
1TB
   44    45     1     0     0
SMALL
bcc


@<TRIPOS>ATOM
      1 C4          -3.0660    -2.5730     1.9960 ca         1 1TB      -0.127000
      2 C5          -3.8700    -1.6470     2.6370 ca         1 1TB      -0.080000
      3 C6          -4.0280    -0.3730     2.1080 ca         1 1TB      -0.110000
      4 C1          -3.3670    -0.0010     0.9450 ca         1 1TB      -0.039600
      5 C2          -2.5600    -0.9480     0.3070 ca         1 1TB      -0.252500
      6 C3          -2.4180    -2.2290     0.8190 ca         1 1TB      -0.019000
      7 C11         -3.4870     1.4190     0.4910 c          1 1TB       0.663700
      8 O12         -4.7470     1.7920     0.4160 os         1 1TB      -0.394900
      9 C13         -5.0110     3.1590     0.0810 c3         1 1TB       0.127700
     10 O11         -2.5440     2.1370     0.2830 o          1 1TB      -0.548000
     11 S7          -1.8100    -0.6090    -1.2630 sy         1 1TB       1.333900
     12 N8          -0.4560     0.3100    -0.9050 ns         1 1TB      -0.650300
     13 C9           0.5910    -0.1700    -0.1520 c          1 1TB       0.838100
     14 O7A         -1.3860    -1.8600    -1.8480 o          1 1TB      -0.590300
     15 O7B         -2.6660     0.2820    -2.0210 o          1 1TB      -0.590300
     16 O9           0.6520    -1.3180     0.2020 o          1 1TB      -0.528100
     17 N10          1.5280     0.8140     0.1730 n          1 1TB      -0.476300
     18 C15          2.8730     0.5240     0.1700 ca         1 1TB       0.849900
     19 N1           3.6800     1.4540     0.6720 nb         1 1TB      -0.822000
     20 C14          4.9720     1.1680     0.6300 ca         1 1TB       0.753300
     21 N5           5.4780     0.0480     0.1270 nb         1 1TB      -0.848000
     22 C8           4.5800    -0.7980    -0.3530 ca         1 1TB       0.935300
     23 N3           3.2710    -0.6170    -0.3660 nb         1 1TB      -0.780000
     24 C10          1.0810     2.1720     0.4810 c3         1 1TB       0.093300
     25 O4           4.9740    -1.9340    -0.8830 os         1 1TB      -0.399100
     26 C12          6.3710    -2.2170    -0.9430 c3         1 1TB       0.141700
     27 C7           5.9220     2.1560     1.2150 c3         1 1TB      -0.142400
     28 H4          -2.9470    -3.5690     2.3980 ha         1 1TB       0.145000
     29 H5          -4.3840    -1.9120     3.5510 ha         1 1TB       0.141000
     30 H6          -4.6610     0.3390     2.6200 ha         1 1TB       0.146000
     31 H3          -1.8140    -2.9620     0.3050 ha         1 1TB       0.177000
     32 H131        -4.6320     3.3980    -0.9120 h1         1 1TB       0.054367
     33 H132        -6.0910     3.2610     0.0930 h1         1 1TB       0.054367
     34 H133        -4.5710     3.8350     0.8120 h1         1 1TB       0.054367
     35 HN8         -0.4890     1.2680    -1.2330 hn         1 1TB       0.360500
     36 H101         0.0490     2.1510     0.8160 h1         1 1TB       0.059367
     37 H102         1.6860     2.5750     1.2860 h1         1 1TB       0.059367
     38 H103         1.1680     2.8320    -0.3830 h1         1 1TB       0.059367
     39 H5'1         6.9030    -1.4780    -1.5390 h1         1 1TB       0.053033
     40 H5'2         6.8120    -2.2610     0.0520 h1         1 1TB       0.053033
     41 H5'3         6.4500    -3.1910    -1.4170 h1         1 1TB       0.053033
     42 H7'1         6.0820     1.9190     2.2690 hc         1 1TB       0.064700
     43 H7'2         6.8880     2.1120     0.7170 hc         1 1TB       0.064700
     44 H7'3         5.5210     3.1660     1.1600 hc         1 1TB       0.064700
@<TRIPOS>BOND
     1     1     2 ar  
     2     1     6 ar  
     3     1    28 1   
     4     2     3 ar  
     5     2    29 1   
     6     3     4 ar  
     7     3    30 1   
     8     4     5 ar  
     9     4     7 1   
    10     5     6 ar  
    11     5    11 1   
    12     6    31 1   
    13     7     8 1   
    14     7    10 2   
    15     8     9 1   
    16     9    32 1   
    17     9    33 1   
    18     9    34 1   
    19    11    12 1   
    20    11    14 2   
    21    11    15 2   
    22    12    13 1   
    23    12    35 1   
    24    13    16 2   
    25    13    17 1   
    26    17    18 1   
    27    17    24 1   
    28    18    19 ar  
    29    18    23 ar  
    30    19    20 ar  
    31    20    21 ar  
    32    20    27 1   
    33    21    22 ar  
    34    22    23 ar  
    35    22    25 1   
    36    24    36 1   
    37    24    37 1   
    38    24    38 1   
    39    25    26 1   
    40    26    39 1   
    41    26    40 1   
    42    26    41 1   
    43    27    42 1   
    44    27    43 1   
    45    27    44 1   
@<TRIPOS>SUBSTRUCTURE
     1 1TB         1 TEMP              0 ****  ****    0 ROOT
