@<TRIPOS>MOLECULE
1TC
   60    63     1     0     0
SMALL
abcg2


@<TRIPOS>ATOM
      1 CAZ          7.4970    -3.2440    -1.8810 c3         1 1TC      -0.125400
      2 CAY          7.3120    -2.0300    -1.0600 cc         1 1TC       0.475300
      3 OBA          6.0650    -1.5970    -0.8370 os         1 1TC      -0.269000
      4 NAX          8.2130    -1.2860    -0.5040 nd         1 1TC      -0.685000
      5 CAW          7.5180    -0.2910     0.1310 cd         1 1TC       0.324900
      6 CAV          6.1940    -0.4820    -0.0730 cc         1 1TC       0.009500
      7 CAT          5.0270     0.2780     0.3820 c          1 1TC       0.557600
      8 OAU          5.1850     1.2700     1.0710 o          1 1TC      -0.557100
      9 NAS          3.8270    -0.2140    -0.0210 ns         1 1TC      -0.135000
     10 CAR          2.5500     0.2600     0.2680 ca         1 1TC       0.005000
     11 CAQ          2.2930     1.4050     1.0230 ca         1 1TC      -0.140000
     12 CAO          0.9790     1.7720     1.2640 ca         1 1TC       0.186000
     13 CLA          0.7060     3.2100     2.1890 cl         1 1TC      -0.173000
     14 CBB          1.4780    -0.4720    -0.2460 ca         1 1TC      -0.176000
     15 CBC          0.1800    -0.0710    -0.0060 ca         1 1TC      -0.052000
     16 CAN         -0.1000     1.0580     0.7600 ca         1 1TC      -0.175600
     17 CAL         -1.5200     1.4050     1.0820 c          1 1TC       0.627700
     18 OAM         -1.9230     1.4180     2.2330 o          1 1TC      -0.577100
     19 NAK         -2.2750     1.6670     0.0040 ns         1 1TC      -0.499900
     20 CAJ         -3.7080     1.8350     0.0440 c3         1 1TC       0.103000
     21 CAI         -4.4540     0.7130    -0.7100 c6         1 1TC      -0.006700
     22 CBD         -4.2240     0.8260    -2.2260 c6         1 1TC      -0.106900
     23 CBE         -4.9110     2.0380    -2.8370 c6         1 1TC       0.152600
     24 OBF         -6.2960     2.0460    -2.5770 os         1 1TC      -0.445000
     25 CBG         -6.5630     2.0680    -1.1940 c6         1 1TC       0.152600
     26 CBH         -5.9700     0.8630    -0.4780 c6         1 1TC      -0.106900
     27 CAF         -3.9670    -0.6190    -0.1560 ca         1 1TC      -0.109300
     28 CAE         -4.2120    -0.9500     1.1800 ca         1 1TC      -0.070500
     29 CAD         -3.7620    -2.1320     1.7340 ca         1 1TC      -0.170000
     30 CAC         -3.0310    -3.0380     0.9620 ca         1 1TC       0.141100
     31 OAB         -2.6270    -4.1660     1.5810 os         1 1TC      -0.337100
     32 CAA         -1.8870    -5.1100     0.8350 c3         1 1TC       0.148900
     33 CAH         -2.7690    -2.7280    -0.3660 ca         1 1TC      -0.170000
     34 CAG         -3.2370    -1.5320    -0.9040 ca         1 1TC      -0.070500
     35 HAZ1         7.1230    -3.0900    -2.8940 hc         1 1TC       0.070700
     36 HAZ2         8.5530    -3.4890    -1.9330 hc         1 1TC       0.070700
     37 HAZ3         6.9600    -4.0910    -1.4530 hc         1 1TC       0.070700
     38 HAW          8.0060     0.4910     0.6890 h4         1 1TC       0.067100
     39 HAS          3.8420    -1.0480    -0.5900 hn         1 1TC       0.166000
     40 HAQ          3.0940     2.0060     1.4190 ha         1 1TC       0.166000
     41 HBB          1.6620    -1.3630    -0.8340 ha         1 1TC       0.116000
     42 HBC         -0.6380    -0.6590    -0.4040 ha         1 1TC       0.128000
     43 HAK         -1.8190     1.7010    -0.8930 hn         1 1TC       0.314500
     44 HAJ1        -4.0140     1.8400     1.0890 h1         1 1TC       0.061200
     45 HAJ2        -3.9640     2.8180    -0.3570 h1         1 1TC       0.061200
     46 HBD1        -3.1600     0.8630    -2.4780 hc         1 1TC       0.053450
     47 HBD2        -4.6200    -0.0690    -2.7140 hc         1 1TC       0.053450
     48 HBH1        -6.4690    -0.0440    -0.8320 hc         1 1TC       0.053450
     49 HBH2        -6.1970     0.9510     0.5880 hc         1 1TC       0.053450
     50 HBE1        -4.4490     2.9720    -2.4850 h1         1 1TC       0.044950
     51 HBE2        -4.7880     2.0160    -3.9220 h1         1 1TC       0.044950
     52 HBG1        -6.1930     3.0030    -0.7470 h1         1 1TC       0.044950
     53 HBG2        -7.6480     2.0680    -1.0770 h1         1 1TC       0.044950
     54 HAE         -4.7640    -0.2710     1.8180 ha         1 1TC       0.112500
     55 HAG         -3.0020    -1.3310    -1.9410 ha         1 1TC       0.112500
     56 HAD         -3.9700    -2.3600     2.7720 ha         1 1TC       0.122500
     57 HAH         -2.1990    -3.3930    -1.0020 ha         1 1TC       0.122500
     58 HAA1        -2.4510    -5.4870    -0.0220 h1         1 1TC       0.039367
     59 HAA2        -0.9390    -4.6970     0.4770 h1         1 1TC       0.039367
     60 HAA3        -1.6750    -5.9400     1.5050 h1         1 1TC       0.039367
@<TRIPOS>BOND
     1     1     2 1   
     2     1    35 1   
     3     1    36 1   
     4     1    37 1   
     5     2     3 1   
     6     2     4 2   
     7     3     6 1   
     8     4     5 1   
     9     5     6 2   
    10     5    38 1   
    11     6     7 1   
    12     7     8 2   
    13     7     9 1   
    14     9    10 1   
    15     9    39 1   
    16    10    11 ar  
    17    10    14 ar  
    18    11    12 ar  
    19    11    40 1   
    20    12    13 1   
    21    12    16 ar  
    22    14    15 ar  
    23    14    41 1   
    24    15    16 ar  
    25    15    42 1   
    26    16    17 1   
    27    17    18 2   
    28    17    19 1   
    29    19    20 1   
    30    19    43 1   
    31    20    21 1   
    32    20    44 1   
    33    20    45 1   
    34    21    22 1   
    35    21    26 1   
    36    21    27 1   
    37    22    23 1   
    38    22    46 1   
    39    22    47 1   
    40    23    24 1   
    41    23    50 1   
    42    23    51 1   
    43    24    25 1   
    44    25    26 1   
    45    25    52 1   
    46    25    53 1   
    47    26    48 1   
    48    26    49 1   
    49    27    28 ar  
    50    27    34 ar  
    51    28    29 ar  
    52    28    54 1   
    53    29    30 ar  
    54    29    56 1   
    55    30    31 1   
    56    30    33 ar  
    57    31    32 1   
    58    32    58 1   
    59    32    59 1   
    60    32    60 1   
    61    33    34 ar  
    62    33    57 1   
    63    34    55 1   
@<TRIPOS>SUBSTRUCTURE
     1 1TC         1 TEMP              0 ****  ****    0 ROOT
