@<TRIPOS>MOLECULE
1TC
   60    63     1     0     0
SMALL
No Charge or Current Charge


@<TRIPOS>ATOM
      1 CAZ          7.5900    -2.5710    -2.7710 c3         1 1TC      -0.125400
      2 CAY          7.3130    -1.8730    -1.4780 cc         1 1TC       0.475300
      3 OBA          6.0450    -1.4400    -1.2270 os         1 1TC      -0.269000
      4 NAX          8.1890    -1.6210    -0.5170 nd         1 1TC      -0.685000
      5 CAW          7.4440    -0.9680     0.4500 cd         1 1TC       0.324900
      6 CAV          6.1550    -0.8670     0.0060 cc         1 1TC       0.009500
      7 CAT          5.0440    -0.2350     0.7450 c          1 1TC       0.557600
      8 OAU          5.1780     0.2710     1.8540 o          1 1TC      -0.557100
      9 NAS          3.8470    -0.2840     0.0430 ns         1 1TC      -0.135000
     10 CAR          2.5390     0.1860     0.3420 ca         1 1TC       0.005000
     11 CAQ          2.2060     0.8770     1.5240 ca         1 1TC      -0.140000
     12 CAO          0.8900     1.3130     1.7610 ca         1 1TC       0.186000
     13 ClA          0.6110     2.2170     3.2520 cl         1 1TC      -0.173000
     14 CBB          1.5290    -0.0550    -0.6010 ca         1 1TC      -0.176000
     15 CBC          0.2130     0.3790    -0.3770 ca         1 1TC      -0.052000
     16 CAN         -0.1300     1.0720     0.8080 ca         1 1TC      -0.175600
     17 CAL         -1.5600     1.5050     1.0340 c          1 1TC       0.627700
     18 OAM         -2.0760     1.5690     2.1400 o          1 1TC      -0.577100
     19 NAK         -2.2820     1.7620    -0.1130 ns         1 1TC      -0.499900
     20 CAJ         -3.7400     1.9330    -0.1730 c3         1 1TC       0.103000
     21 CAI         -4.4710     0.7000    -0.8170 c6         1 1TC      -0.006700
     22 CBD         -4.1800     0.6460    -2.3610 c6         1 1TC      -0.106900
     23 CBE         -4.8450     1.8050    -3.1460 c6         1 1TC       0.152600
     24 OBF         -6.2640     1.8130    -2.8950 os         1 1TC      -0.445000
     25 CBG         -6.6050     2.0080    -1.5090 c6         1 1TC       0.152600
     26 CBH         -6.0230     0.8550    -0.6520 c6         1 1TC      -0.106900
     27 CAF         -3.9860    -0.5830    -0.0690 ca         1 1TC      -0.109300
     28 CAE         -4.3230    -0.7660     1.2920 ca         1 1TC      -0.070500
     29 CAD         -3.8730    -1.8890     2.0050 ca         1 1TC      -0.170000
     30 CAC         -3.0690    -2.8530     1.3830 ca         1 1TC       0.141100
     31 OAB         -2.6510    -3.9310     2.1360 os         1 1TC      -0.337100
     32 CAA         -1.8110    -4.9650     1.5930 c3         1 1TC       0.148900
     33 CAH         -2.7130    -2.6830     0.0310 ca         1 1TC      -0.170000
     34 CAG         -3.1650    -1.5610    -0.6860 ca         1 1TC      -0.070500
     35 HAZ1         7.3590    -1.9160    -3.6180 hc         1 1TC       0.070700
     36 HAZ2         8.6440    -2.8630    -2.8430 hc         1 1TC       0.070700
     37 HAZ3         6.9780    -3.4750    -2.8590 hc         1 1TC       0.070700
     38 HAW          7.8700    -0.6180     1.3830 h4         1 1TC       0.067100
     39 HAS          3.9210    -0.7420    -0.8570 hn         1 1TC       0.166000
     40 HAQ          2.9530     1.0960     2.2780 ha         1 1TC       0.166000
     41 HBB          1.7610    -0.5920    -1.5190 ha         1 1TC       0.116000
     42 HBC         -0.5400     0.1420    -1.1260 ha         1 1TC       0.128000
     43 HAK         -1.7700     1.7210    -0.9840 hn         1 1TC       0.314500
     44 HAJ1        -4.1290     2.0840     0.8430 h1         1 1TC       0.061200
     45 HAJ2        -3.9600     2.8490    -0.7350 h1         1 1TC       0.061200
     46 HBD1        -3.0990     0.6600    -2.5560 hc         1 1TC       0.053450
     47 HBD2        -4.5600    -0.2980    -2.7750 hc         1 1TC       0.053450
     48 HBH1        -6.5170    -0.0830    -0.9400 hc         1 1TC       0.053450
     49 HBH2        -6.2940     1.0330     0.3960 hc         1 1TC       0.053450
     50 HBE1        -4.4150     2.7760    -2.8620 h1         1 1TC       0.044950
     51 HBE2        -4.6770     1.6670    -4.2230 h1         1 1TC       0.044950
     52 HBG1        -6.2210     2.9810    -1.1700 h1         1 1TC       0.044950
     53 HBG2        -7.7000     2.0260    -1.4130 h1         1 1TC       0.044950
     54 HAE         -4.9240    -0.0280     1.8170 ha         1 1TC       0.112500
     55 HAG         -2.8520    -1.4690    -1.7210 ha         1 1TC       0.112500
     56 HAD         -4.1430    -2.0080     3.0510 ha         1 1TC       0.122500
     57 HAH         -2.0860    -3.4060    -0.4810 ha         1 1TC       0.122500
     58 HAA1        -2.3030    -5.4640     0.7480 h1         1 1TC       0.039367
     59 HAA2        -0.8550    -4.5500     1.2500 h1         1 1TC       0.039367
     60 HAA3        -1.5980    -5.7220     2.3580 h1         1 1TC       0.039367
@<TRIPOS>BOND
     1     1     2 1   
     2     1    35 1   
     3     1    36 1   
     4     1    37 1   
     5     2     3 1   
     6     2     4 2   
     7     3     6 1   
     8     4     5 1   
     9     5     6 2   
    10     5    38 1   
    11     6     7 1   
    12     7     8 2   
    13     7     9 1   
    14     9    10 1   
    15     9    39 1   
    16    10    11 ar  
    17    10    14 ar  
    18    11    12 ar  
    19    11    40 1   
    20    12    13 1   
    21    12    16 ar  
    22    14    15 ar  
    23    14    41 1   
    24    15    16 ar  
    25    15    42 1   
    26    16    17 1   
    27    17    18 2   
    28    17    19 1   
    29    19    20 1   
    30    19    43 1   
    31    20    21 1   
    32    20    44 1   
    33    20    45 1   
    34    21    22 1   
    35    21    26 1   
    36    21    27 1   
    37    22    23 1   
    38    22    46 1   
    39    22    47 1   
    40    23    24 1   
    41    23    50 1   
    42    23    51 1   
    43    24    25 1   
    44    25    26 1   
    45    25    52 1   
    46    25    53 1   
    47    26    48 1   
    48    26    49 1   
    49    27    28 ar  
    50    27    34 ar  
    51    28    29 ar  
    52    28    54 1   
    53    29    30 ar  
    54    29    56 1   
    55    30    31 1   
    56    30    33 ar  
    57    31    32 1   
    58    32    58 1   
    59    32    59 1   
    60    32    60 1   
    61    33    34 ar  
    62    33    57 1   
    63    34    55 1   
@<TRIPOS>SUBSTRUCTURE
     1 1TC         1 TEMP              0 ****  ****    0 ROOT
