@<TRIPOS>MOLECULE
1TD
   30    32     1     0     0
SMALL
abcg2


@<TRIPOS>ATOM
      1 C1          -2.5000     2.8820    -0.4530 ca         1 1TD      -0.147000
      2 C2          -3.8600     2.6470    -0.6220 ca         1 1TD      -0.093000
      3 C3           2.1640     1.2880     1.6300 ca         1 1TD      -0.156000
      4 C4          -1.6240     1.8290    -0.2100 ca         1 1TD      -0.054000
      5 C5           0.9740     0.6250     1.3780 ca         1 1TD      -0.110000
      6 C6           3.3420     0.8660     1.0300 ca         1 1TD      -0.062000
      7 C7          -4.3750     1.3550    -0.5730 ca         1 1TD      -0.159000
      8 C8           2.1580    -0.9160    -0.0390 ca         1 1TD      -0.052000
      9 C9          -2.1180     0.5340    -0.1350 ca         1 1TD      -0.065800
     10 C10          0.9560    -0.4780     0.5210 ca         1 1TD      -0.139800
     11 C11          3.3530    -0.2450     0.1890 ca         1 1TD      -0.143600
     12 C12         -3.4910     0.3210    -0.3400 ca         1 1TD       0.050600
     13 C13         -1.5120    -0.7840     0.0410 cc         1 1TD      -0.198400
     14 C14         -2.6290    -1.7730    -0.1050 c          1 1TD       0.564200
     15 C15         -0.2630    -1.2320     0.2480 cf         1 1TD       0.013800
     16 C16          4.6500    -0.7250    -0.4560 c          1 1TD       0.714600
     17 N17         -3.7610    -1.0380    -0.2950 ns         1 1TD      -0.408100
     18 O18          4.5730    -1.7470    -1.1630 o          1 1TD      -0.715500
     19 O19         -2.5670    -2.9860    -0.0530 o          1 1TD      -0.550000
     20 O20          5.6700    -0.0530    -0.2180 o          1 1TD      -0.715500
     21 H1          -2.1180     3.8920    -0.5080 ha         1 1TD       0.109000
     22 H2          -4.5300     3.4770    -0.8020 ha         1 1TD       0.101000
     23 H4          -0.5690     2.0290    -0.0910 ha         1 1TD       0.137000
     24 H6           4.2670     1.3930     1.2240 ha         1 1TD       0.131000
     25 H7          -5.4310     1.1690    -0.7220 ha         1 1TD       0.108000
     26 H8           2.1580    -1.7900    -0.6780 ha         1 1TD       0.133000
     27 H9          -0.1390    -2.3110     0.2030 ha         1 1TD       0.194000
     28 H10         -4.6730    -1.4430    -0.4340 hn         1 1TD       0.326500
     29 H3           2.1720     2.1350     2.3040 ha         1 1TD       0.091000
     30 H5           0.0660     0.9430     1.8750 ha         1 1TD       0.095000
@<TRIPOS>BOND
     1     1     2 ar  
     2     1     4 ar  
     3     1    21 1   
     4     2     7 ar  
     5     2    22 1   
     6     3     5 ar  
     7     3     6 ar  
     8     3    29 1   
     9     4     9 ar  
    10     4    23 1   
    11     5    10 ar  
    12     5    30 1   
    13     6    11 ar  
    14     6    24 1   
    15     7    12 ar  
    16     7    25 1   
    17     8    10 ar  
    18     8    11 ar  
    19     8    26 1   
    20     9    12 ar  
    21     9    13 1   
    22    10    15 1   
    23    11    16 1   
    24    12    17 1   
    25    13    14 1   
    26    13    15 2   
    27    14    17 1   
    28    14    19 2   
    29    15    27 1   
    30    16    18 1   
    31    16    20 1   
    32    17    28 1   
@<TRIPOS>SUBSTRUCTURE
     1 1TD         1 TEMP              0 ****  ****    0 ROOT
