@<TRIPOS>MOLECULE
1TD
   30    32     1     0     0
SMALL
No Charge or Current Charge


@<TRIPOS>ATOM
      1 C1          -2.5530     2.8880    -0.5570 ca         1 1TD      -0.147000
      2 C2          -3.9450     2.6900    -0.3910 ca         1 1TD      -0.093000
      3 C3           2.0950     1.3390     1.5250 ca         1 1TD      -0.156000
      4 C4          -1.6570     1.7950    -0.5240 ca         1 1TD      -0.054000
      5 C5           0.9240     0.7030     1.0880 ca         1 1TD      -0.110000
      6 C6           3.3530     0.8490     1.1410 ca         1 1TD      -0.062000
      7 C7          -4.4630     1.3910    -0.2110 ca         1 1TD      -0.159000
      8 C8           2.2650    -0.9300    -0.1100 ca         1 1TD      -0.052000
      9 C9          -2.1830     0.5150    -0.2870 ca         1 1TD      -0.065800
     10 C10          0.9970    -0.4250     0.2480 ca         1 1TD      -0.139800
     11 C11          3.4560    -0.2980     0.3210 ca         1 1TD      -0.143600
     12 C12         -3.5510     0.3320    -0.1740 ca         1 1TD       0.050600
     13 C13         -1.5480    -0.8090    -0.2550 cc         1 1TD      -0.198400
     14 C14         -2.6470    -1.8060    -0.1510 c          1 1TD       0.564200
     15 C15         -0.2160    -1.1330    -0.2150 cf         1 1TD       0.013800
     16 C16          4.8150    -0.8420    -0.0850 c          1 1TD       0.714600
     17 N17         -3.7780    -1.0380    -0.0950 ns         1 1TD      -0.408100
     18 O18          4.8590    -1.8410    -0.7900 o          1 1TD      -0.715500
     19 O19         -2.5920    -3.0260    -0.0950 o          1 1TD      -0.550000
     20 O20          5.8190    -0.2630     0.3060 o          1 1TD      -0.715500
     21 H1          -2.1690     3.8920    -0.7260 ha         1 1TD       0.109000
     22 H2          -4.6210     3.5420    -0.4280 ha         1 1TD       0.101000
     23 H4          -0.5950     1.9480    -0.6970 ha         1 1TD       0.137000
     24 H6           4.2490     1.3580     1.4930 ha         1 1TD       0.131000
     25 H7          -5.5330     1.2170    -0.1210 ha         1 1TD       0.108000
     26 H8           2.3240    -1.8140    -0.7420 ha         1 1TD       0.133000
     27 H9          -0.0520    -2.2090    -0.3080 ha         1 1TD       0.194000
     28 H10         -4.7030    -1.4420    -0.0190 hn         1 1TD       0.326500
     29 H3           2.0280     2.2090     2.1730 ha         1 1TD       0.091000
     30 H5          -0.0370     1.0720     1.4340 ha         1 1TD       0.095000
@<TRIPOS>BOND
     1     1     2 ar  
     2     1     4 ar  
     3     1    21 1   
     4     2     7 ar  
     5     2    22 1   
     6     3     5 ar  
     7     3     6 ar  
     8     3    29 1   
     9     4     9 ar  
    10     4    23 1   
    11     5    10 ar  
    12     5    30 1   
    13     6    11 ar  
    14     6    24 1   
    15     7    12 ar  
    16     7    25 1   
    17     8    10 ar  
    18     8    11 ar  
    19     8    26 1   
    20     9    12 ar  
    21     9    13 1   
    22    10    15 1   
    23    11    16 1   
    24    12    17 1   
    25    13    14 1   
    26    13    15 2   
    27    14    17 1   
    28    14    19 2   
    29    15    27 1   
    30    16    18 1   
    31    16    20 1   
    32    17    28 1   
@<TRIPOS>SUBSTRUCTURE
     1 1TD         1 TEMP              0 ****  ****    0 ROOT
