@<TRIPOS>MOLECULE
1TE
   45    48     1     0     0
SMALL
abcg2


@<TRIPOS>ATOM
      1 OAU         -1.1430    -3.4790     0.4190 o          1 1TE      -0.703500
      2 CAL         -1.4060    -2.4840    -0.2780 c          1 1TE       0.733000
      3 OAV         -1.3910    -2.3940    -1.5180 o          1 1TE      -0.703500
      4 CAG         -1.7890    -1.1940     0.4830 c5         1 1TE      -0.023300
      5 NAA         -3.0000    -0.5640    -0.0110 nj         1 1TE      -0.318800
      6 CAE         -4.1880    -0.3360     0.6130 c          1 1TE       0.549000
      7 OAT         -4.8590    -1.0330     1.3360 o          1 1TE      -0.529000
      8 CAD         -4.2630     1.1030     0.0930 cy         1 1TE      -0.221700
      9 CAJ         -5.3220     1.4210    -0.9540 c3         1 1TE       0.184300
     10 CAK         -6.7210     1.3830    -0.3600 c3         1 1TE      -0.126100
     11 OAW         -5.0390     2.6550    -1.5790 oh         1 1TE      -0.660000
     12 CAF         -2.8330     0.8320    -0.4280 cy         1 1TE       0.062700
     13 CAI         -1.5750     1.2680     0.3340 c5         1 1TE      -0.079700
     14 CAS         -1.8240     1.7370     1.7580 c3         1 1TE      -0.084100
     15 CAH         -0.7740    -0.0530     0.2380 c5         1 1TE       0.051300
     16 SAX          0.6440    -0.2540     1.3370 ss         1 1TE      -0.351000
     17 CAM          1.7930     0.9180     0.5940 cy         1 1TE       0.006300
     18 CAN          2.3830     0.4970    -0.7690 cy         1 1TE       0.219800
     19 CAO          3.2090     0.7650     1.1850 cy         1 1TE       0.219800
     20 NAB          3.6270     0.1800    -0.0800 nn         1 1TE      -0.741300
     21 CAP          4.8570     0.1920    -0.6240 cc         1 1TE       0.726300
     22 NAC          5.1040     0.0580    -1.8920 nd         1 1TE      -0.725000
     23 CAR          6.4530     0.0860    -2.1190 cd         1 1TE       0.323900
     24 CAQ          7.2490     0.2430    -1.0380 cc         1 1TE      -0.302000
     25 SAY          6.2690     0.3720     0.3840 ss         1 1TE      -0.142400
     26 H2          -1.8980    -1.4040     1.5530 h1         1 1TE       0.057700
     27 H3          -4.3170     1.8240     0.9140 hc         1 1TE       0.067700
     28 H4          -5.2570     0.6750    -1.7520 h1         1 1TE       0.090700
     29 H5          -6.8280     2.1130     0.4460 hc         1 1TE       0.041700
     30 H6          -7.4690     1.6040    -1.1220 hc         1 1TE       0.041700
     31 H7          -6.9450     0.4000     0.0530 hc         1 1TE       0.041700
     32 H8          -5.1600     3.3580    -0.9310 ho         1 1TE       0.428000
     33 H9          -2.7080     0.9560    -1.5060 h1         1 1TE       0.091700
     34 H10         -1.0560     2.0560    -0.2150 hc         1 1TE       0.043700
     35 H11         -2.3300     0.9890     2.3730 hc         1 1TE       0.033700
     36 H12         -0.8830     1.9730     2.2540 hc         1 1TE       0.033700
     37 H13         -2.4310     2.6420     1.7660 hc         1 1TE       0.033700
     38 H14         -0.4150    -0.1540    -0.7910 h1         1 1TE       0.100700
     39 H15          1.3960     1.9310     0.6290 h1         1 1TE       0.072700
     40 H16          1.9110    -0.3510    -1.2660 h1         1 1TE       0.068700
     41 H17          2.4810     1.3230    -1.4790 h1         1 1TE       0.068700
     42 H18          3.6900     1.7230     1.4080 h1         1 1TE       0.068700
     43 H19          3.3150     0.1050     2.0490 h1         1 1TE       0.068700
     44 H20          6.8190    -0.0170    -3.1310 h4         1 1TE       0.030100
     45 H21          8.3240     0.2910    -0.9870 h4         1 1TE       0.149000
@<TRIPOS>BOND
     1     1     2 1   
     2     2     3 1   
     3     2     4 1   
     4     4     5 1   
     5     4    15 1   
     6     4    26 1   
     7     5     6 1   
     8     5    12 1   
     9     6     7 2   
    10     6     8 1   
    11     8     9 1   
    12     8    12 1   
    13     8    27 1   
    14     9    10 1   
    15     9    11 1   
    16     9    28 1   
    17    10    29 1   
    18    10    30 1   
    19    10    31 1   
    20    11    32 1   
    21    12    13 1   
    22    12    33 1   
    23    13    14 1   
    24    13    15 1   
    25    13    34 1   
    26    14    35 1   
    27    14    36 1   
    28    14    37 1   
    29    15    16 1   
    30    15    38 1   
    31    16    17 1   
    32    17    18 1   
    33    17    19 1   
    34    17    39 1   
    35    18    20 1   
    36    18    40 1   
    37    18    41 1   
    38    19    20 1   
    39    19    42 1   
    40    19    43 1   
    41    20    21 1   
    42    21    22 2   
    43    21    25 1   
    44    22    23 1   
    45    23    24 2   
    46    23    44 1   
    47    24    25 1   
    48    24    45 1   
@<TRIPOS>SUBSTRUCTURE
     1 1TE         1 TEMP              0 ****  ****    0 ROOT
