@<TRIPOS>MOLECULE
1TE
   45    48     1     0     0
SMALL
No Charge or Current Charge


@<TRIPOS>ATOM
      1 OAU         -1.6270    -3.6170     0.1510 o          1 1TE      -0.703500
      2 CAL         -1.5670    -2.5370    -0.4220 c          1 1TE       0.733000
      3 OAV         -1.3400    -2.4590    -1.6240 o          1 1TE      -0.703500
      4 CAG         -1.8260    -1.2390     0.4060 c5         1 1TE      -0.023300
      5 NAA         -3.0270    -0.5180     0.0100 nj         1 1TE      -0.318800
      6 CAE         -4.1960    -0.2570     0.7290 c          1 1TE       0.549000
      7 OAT         -4.8260    -0.8860     1.5660 o          1 1TE      -0.529000
      8 CAD         -4.2920     1.1540     0.0820 cy         1 1TE      -0.221700
      9 CAJ         -5.3840     1.3360    -0.9770 c3         1 1TE       0.184300
     10 CAK         -6.7960     1.4210    -0.3660 c3         1 1TE      -0.126100
     11 OAW         -5.1400     2.5250    -1.7290 oh         1 1TE      -0.660000
     12 CAF         -2.8200     0.8740    -0.3980 cy         1 1TE       0.062700
     13 CAI         -1.5030     1.1900     0.3810 c5         1 1TE      -0.079700
     14 CAS         -1.6760     1.6010     1.8720 c3         1 1TE      -0.084100
     15 CAH         -0.7310    -0.1640     0.1230 c5         1 1TE       0.051300
     16 SAX          0.6790    -0.4130     1.3230 ss         1 1TE      -0.351000
     17 CAM          1.7790     0.9260     0.6140 cy         1 1TE       0.006300
     18 CAN          2.4390     0.6860    -0.7950 cy         1 1TE       0.219800
     19 CAO          3.2490     1.0240     1.1620 cy         1 1TE       0.219800
     20 NAB          3.6350     0.2430    -0.0380 nn         1 1TE      -0.741300
     21 CAP          4.9000     0.1900    -0.5580 cc         1 1TE       0.726300
     22 NAC          5.1070     0.0020    -1.8470 nd         1 1TE      -0.725000
     23 CAR          6.4710    -0.0220    -2.0990 cd         1 1TE       0.323900
     24 CAQ          7.2710     0.1460    -0.9910 cc         1 1TE      -0.302000
     25 SAY          6.3160     0.3410     0.4510 ss         1 1TE      -0.142400
     26 H2          -1.8980    -1.4890     1.4720 h1         1 1TE       0.057700
     27 H3          -4.3820     1.9280     0.8500 hc         1 1TE       0.067700
     28 H4          -5.3490     0.4600    -1.6430 h1         1 1TE       0.090700
     29 H5          -6.8770     2.2690     0.3250 hc         1 1TE       0.041700
     30 H6          -7.5490     1.5440    -1.1540 hc         1 1TE       0.041700
     31 H7          -7.0330     0.5050     0.1860 hc         1 1TE       0.041700
     32 H8          -5.1430     3.2690    -1.0890 ho         1 1TE       0.428000
     33 H9          -2.6850     0.9620    -1.4840 h1         1 1TE       0.091700
     34 H10         -0.9750     2.0250    -0.0920 hc         1 1TE       0.043700
     35 H11         -2.1290     0.8030     2.4700 hc         1 1TE       0.033700
     36 H12         -0.7150     1.8590     2.3320 hc         1 1TE       0.033700
     37 H13         -2.3140     2.4880     1.9600 hc         1 1TE       0.033700
     38 H14         -0.3750    -0.2180    -0.9150 h1         1 1TE       0.100700
     39 H15          1.2700     1.8930     0.6670 h1         1 1TE       0.072700
     40 H16          1.9540    -0.0790    -1.4120 h1         1 1TE       0.068700
     41 H17          2.5770     1.6070    -1.3750 h1         1 1TE       0.068700
     42 H18          3.6380     2.0500     1.1870 h1         1 1TE       0.068700
     43 H19          3.4140     0.5350     2.1290 h1         1 1TE       0.068700
     44 H20          6.8240    -0.1650    -3.1130 h4         1 1TE       0.030100
     45 H21          8.3510     0.1630    -0.9390 h4         1 1TE       0.149000
@<TRIPOS>BOND
     1     1     2 1   
     2     2     3 1   
     3     2     4 1   
     4     4     5 1   
     5     4    15 1   
     6     4    26 1   
     7     5     6 1   
     8     5    12 1   
     9     6     7 2   
    10     6     8 1   
    11     8     9 1   
    12     8    12 1   
    13     8    27 1   
    14     9    10 1   
    15     9    11 1   
    16     9    28 1   
    17    10    29 1   
    18    10    30 1   
    19    10    31 1   
    20    11    32 1   
    21    12    13 1   
    22    12    33 1   
    23    13    14 1   
    24    13    15 1   
    25    13    34 1   
    26    14    35 1   
    27    14    36 1   
    28    14    37 1   
    29    15    16 1   
    30    15    38 1   
    31    16    17 1   
    32    17    18 1   
    33    17    19 1   
    34    17    39 1   
    35    18    20 1   
    36    18    40 1   
    37    18    41 1   
    38    19    20 1   
    39    19    42 1   
    40    19    43 1   
    41    20    21 1   
    42    21    22 2   
    43    21    25 1   
    44    22    23 1   
    45    23    24 2   
    46    23    44 1   
    47    24    25 1   
    48    24    45 1   
@<TRIPOS>SUBSTRUCTURE
     1 1TE         1 TEMP              0 ****  ****    0 ROOT
