@<TRIPOS>MOLECULE
1TH
   39    41     1     0     0
SMALL
No Charge or Current Charge


@<TRIPOS>ATOM
      1 CAR         28.2410    19.7640     3.2890 ca         1 1TH      -0.065500
      2 CAS         28.3660    20.5220     2.1120 ca         1 1TH      -0.153000
      3 CAT         28.5770    19.8770     0.8840 ca         1 1TH       0.178000
      4 FAW         28.6970    20.6060    -0.2470 f          1 1TH      -0.178000
      5 CAU         28.6650    18.4780     0.8240 ca         1 1TH      -0.153000
      6 CAV         28.5400    17.7170     2.0010 ca         1 1TH      -0.065500
      7 CAQ         28.3260    18.3570     3.2380 ca         1 1TH      -0.098300
      8 CAP         28.1920    17.5360     4.5120 c3         1 1TH       0.120900
      9 SAO         29.8480    17.3060     5.3090 ss         1 1TH      -0.426000
     10 CAN         29.3810    16.2530     6.7620 c3         1 1TH       0.025600
     11 CAM         28.6810    17.0860     7.8580 c3         1 1TH       0.114000
     12 NAD         28.4060    16.3130     9.0850 n          1 1TH      -0.245300
     13 CAE         27.2920    15.5190     9.2710 cs         1 1TH       0.371400
     14 SAF         26.1030    15.0520     8.1920 s          1 1TH      -0.622400
     15 NAB         27.3600    15.2420    10.5980 ns         1 1TH      -0.268400
     16 NAA         28.3840    15.8010    11.2770 nc         1 1TH      -0.479300
     17 CAC         29.0300    16.4630    10.3330 cd         1 1TH       0.410500
     18 CAG         30.2090    17.3140    10.6180 ca         1 1TH      -0.130900
     19 CAH         30.2940    17.9950    11.8540 ca         1 1TH      -0.075000
     20 CAI         31.4200    18.7740    12.1710 ca         1 1TH      -0.112000
     21 CAJ         32.4910    18.8630    11.2680 ca         1 1TH      -0.086000
     22 CAK         32.4380    18.1610    10.0540 ca         1 1TH      -0.112000
     23 CAL         31.3110    17.3820     9.7360 ca         1 1TH      -0.075000
     24 H1          28.0810    20.2670     4.2410 ha         1 1TH       0.120500
     25 H2          28.3000    21.6060     2.1500 ha         1 1TH       0.133500
     26 H3          28.8300    17.9850    -0.1310 ha         1 1TH       0.133500
     27 H4          28.6130    16.6330     1.9520 ha         1 1TH       0.120500
     28 H5          27.5160    18.0450     5.2110 h1         1 1TH       0.073700
     29 H6          27.7620    16.5530     4.2790 h1         1 1TH       0.073700
     30 H7          28.7160    15.4450     6.4310 h1         1 1TH       0.089700
     31 H8          30.2880    15.7900     7.1680 h1         1 1TH       0.089700
     32 H9          29.2970    17.9590     8.1050 h1         1 1TH       0.082200
     33 H10         27.7300    17.4680     7.4680 h1         1 1TH       0.082200
     34 H11         26.6480    14.6620    11.0530 hn         1 1TH       0.508000
     35 H12         29.4750    17.9340    12.5690 ha         1 1TH       0.124500
     36 H13         31.4640    19.3050    13.1190 ha         1 1TH       0.122500
     37 H14         33.3640    19.4640    11.5140 ha         1 1TH       0.120000
     38 H15         33.2760    18.2100     9.3620 ha         1 1TH       0.122500
     39 H16         31.3150    16.8190     8.8090 ha         1 1TH       0.124500
@<TRIPOS>BOND
     1     1     2 ar  
     2     1     7 ar  
     3     1    24 1   
     4     2     3 ar  
     5     2    25 1   
     6     3     4 1   
     7     3     5 ar  
     8     5     6 ar  
     9     5    26 1   
    10     6     7 ar  
    11     6    27 1   
    12     7     8 1   
    13     8     9 1   
    14     8    28 1   
    15     8    29 1   
    16     9    10 1   
    17    10    11 1   
    18    10    30 1   
    19    10    31 1   
    20    11    12 1   
    21    11    32 1   
    22    11    33 1   
    23    12    13 1   
    24    12    17 1   
    25    13    14 2   
    26    13    15 1   
    27    15    16 1   
    28    15    34 1   
    29    16    17 2   
    30    17    18 1   
    31    18    19 ar  
    32    18    23 ar  
    33    19    20 ar  
    34    19    35 1   
    35    20    21 ar  
    36    20    36 1   
    37    21    22 ar  
    38    21    37 1   
    39    22    23 ar  
    40    22    38 1   
    41    23    39 1   
@<TRIPOS>SUBSTRUCTURE
     1 1TH         1 TEMP              0 ****  ****    0 ROOT
