@<TRIPOS>MOLECULE
1TH
   39    41     1     0     0
SMALL
abcg2


@<TRIPOS>ATOM
      1 CAR         28.2420    19.7320     3.3370 ca         1 1TH      -0.065500
      2 CAS         28.4980    20.4830     2.2000 ca         1 1TH      -0.153000
      3 CAT         28.7610    19.8190     1.0170 ca         1 1TH       0.178000
      4 FAW         29.0200    20.5360    -0.0880 f          1 1TH      -0.178000
      5 CAU         28.7650    18.4390     0.9360 ca         1 1TH      -0.153000
      6 CAV         28.5080    17.7070     2.0860 ca         1 1TH      -0.065500
      7 CAQ         28.2410    18.3400     3.2960 ca         1 1TH      -0.098300
      8 CAP         28.0240    17.5430     4.5460 c3         1 1TH       0.120900
      9 SAO         29.6580    17.3260     5.3310 ss         1 1TH      -0.426000
     10 CAN         29.2470    16.3320     6.7840 c3         1 1TH       0.025600
     11 CAM         28.6030    17.1650     7.8830 c3         1 1TH       0.114000
     12 NAD         28.3860    16.3950     9.0950 n          1 1TH      -0.245300
     13 CAE         27.3480    15.5270     9.2630 cs         1 1TH       0.371400
     14 SAF         26.1680    15.0990     8.1630 s          1 1TH      -0.622400
     15 NAB         27.4940    15.1200    10.5290 ns         1 1TH      -0.268400
     16 NAA         28.5420    15.6750    11.1600 nc         1 1TH      -0.479300
     17 CAC         29.0820    16.4540    10.2780 cd         1 1TH       0.410500
     18 CAG         30.2460    17.2990    10.5550 ca         1 1TH      -0.130900
     19 CAH         30.2870    18.0070    11.7560 ca         1 1TH      -0.075000
     20 CAI         31.3850    18.7970    12.0610 ca         1 1TH      -0.112000
     21 CAJ         32.4470    18.8890    11.1720 ca         1 1TH      -0.086000
     22 CAK         32.4130    18.1800     9.9790 ca         1 1TH      -0.112000
     23 CAL         31.3200    17.3850     9.6710 ca         1 1TH      -0.075000
     24 H1          28.0390    20.2410     4.2710 ha         1 1TH       0.120500
     25 H2          28.4950    21.5640     2.2350 ha         1 1TH       0.133500
     26 H3          28.9680    17.9440    -0.0050 ha         1 1TH       0.133500
     27 H4          28.5130    16.6250     2.0340 ha         1 1TH       0.120500
     28 H5          27.3490    18.0640     5.2260 h1         1 1TH       0.073700
     29 H6          27.6030    16.5610     4.3260 h1         1 1TH       0.073700
     30 H7          28.5970    15.5050     6.4930 h1         1 1TH       0.089700
     31 H8          30.1890    15.8990     7.1240 h1         1 1TH       0.089700
     32 H9          29.2230    18.0230     8.1340 h1         1 1TH       0.082200
     33 H10         27.6320    17.5400     7.5600 h1         1 1TH       0.082200
     34 H11         26.9030    14.4540    11.0040 hn         1 1TH       0.508000
     35 H12         29.4540    17.9470    12.4440 ha         1 1TH       0.124500
     36 H13         31.4060    19.3470    12.9930 ha         1 1TH       0.122500
     37 H14         33.3000    19.5110    11.4090 ha         1 1TH       0.120000
     38 H15         33.2430    18.2390     9.2860 ha         1 1TH       0.122500
     39 H16         31.3250    16.8150     8.7520 ha         1 1TH       0.124500
@<TRIPOS>BOND
     1     1     2 ar  
     2     1     7 ar  
     3     1    24 1   
     4     2     3 ar  
     5     2    25 1   
     6     3     4 1   
     7     3     5 ar  
     8     5     6 ar  
     9     5    26 1   
    10     6     7 ar  
    11     6    27 1   
    12     7     8 1   
    13     8     9 1   
    14     8    28 1   
    15     8    29 1   
    16     9    10 1   
    17    10    11 1   
    18    10    30 1   
    19    10    31 1   
    20    11    12 1   
    21    11    32 1   
    22    11    33 1   
    23    12    13 1   
    24    12    17 1   
    25    13    14 2   
    26    13    15 1   
    27    15    16 1   
    28    15    34 1   
    29    16    17 2   
    30    17    18 1   
    31    18    19 ar  
    32    18    23 ar  
    33    19    20 ar  
    34    19    35 1   
    35    20    21 ar  
    36    20    36 1   
    37    21    22 ar  
    38    21    37 1   
    39    22    23 ar  
    40    22    38 1   
    41    23    39 1   
@<TRIPOS>SUBSTRUCTURE
     1 1TH         1 TEMP              0 ****  ****    0 ROOT
