@<TRIPOS>MOLECULE
1TI
   63    67     1     0     0
SMALL
No Charge or Current Charge


@<TRIPOS>ATOM
      1 N           12.4620    -8.5310     7.5530 nb         1 1TI      -0.700000
      2 C           11.2740    -6.4980     8.1610 c3         1 1TI      -0.147400
      3 O           14.3490   -11.4270     6.4340 o          1 1TI      -0.620100
      4 C1          12.4380    -7.1860     7.4750 ca         1 1TI       0.379300
      5 C10         12.5970   -13.6500    11.6240 ca         1 1TI       0.172000
      6 C11         13.9630   -13.9500    11.7290 ca         1 1TI      -0.147000
      7 C12         14.8010   -13.8650    10.5990 ca         1 1TI       0.048000
      8 C13         14.2340   -13.4750     9.3640 ca         1 1TI      -0.111000
      9 C14         16.2310   -14.1800    10.7290 cc         1 1TI      -0.169000
     10 C15         16.9710   -14.5840    11.8530 cc         1 1TI       0.258900
     11 C17         17.1140   -14.1150     9.6890 cd         1 1TI      -0.147000
     12 C18         16.8170    -6.9170     5.1710 c5         1 1TI       0.097000
     13 C19         17.5700    -5.6910     4.5830 c5         1 1TI      -0.082400
     14 C2          13.4100    -6.4450     6.7860 ca         1 1TI      -0.168000
     15 C20         16.4480    -4.8480     3.8720 c5         1 1TI      -0.034900
     16 C21         16.6330    -3.4000     4.1600 c1         1 1TI       0.312900
     17 C22         15.1360    -5.2940     4.5410 c          1 1TI       0.582000
     18 C23         16.5050    -5.2340     2.3260 cx         1 1TI      -0.108000
     19 C24         16.2330    -6.6920     1.9380 c3         1 1TI      -0.064100
     20 C25         16.0210    -4.1600     1.3610 cx         1 1TI      -0.114900
     21 C26         17.5040    -4.4470     1.4930 cx         1 1TI      -0.114900
     22 C3          14.5000    -7.1040     6.1880 ca         1 1TI       0.014000
     23 C4          14.4820    -8.5120     6.2190 ca         1 1TI      -0.169000
     24 C5          13.4720    -9.2020     6.9240 ca         1 1TI       0.315500
     25 C6          13.4890   -10.7380     6.9770 c          1 1TI       0.510600
     26 C7          12.2750   -12.7470     7.9180 c3         1 1TI       0.148300
     27 C8          12.8620   -13.1740     9.2560 ca         1 1TI      -0.085300
     28 C9          12.0440   -13.2620    10.3970 ca         1 1TI      -0.152000
     29 N1          12.4540   -11.3130     7.6910 ns         1 1TI      -0.481900
     30 N2          18.2500   -14.7800    11.6050 nd         1 1TI      -0.525800
     31 N3          18.3410   -14.4870    10.2500 na         1 1TI       0.134800
     32 N4          15.4380    -6.4180     5.3340 n          1 1TI      -0.223400
     33 N5          16.8050    -2.2780     4.4200 n1         1 1TI      -0.434000
     34 H1          10.9120    -7.0780     9.0190 hc         1 1TI       0.055367
     35 H2          11.5620    -5.5080     8.5310 hc         1 1TI       0.055367
     36 H3          10.4370    -6.3680     7.4650 hc         1 1TI       0.055367
     37 H4          14.3610   -14.2470    12.6940 ha         1 1TI       0.131000
     38 H5          14.8530   -13.3970     8.4750 ha         1 1TI       0.128000
     39 H6          16.6090   -14.7430    12.8600 h4         1 1TI       0.039100
     40 H7          20.3490   -13.8960    10.0100 h1         1 1TI       0.057700
     41 H8          20.0060   -15.6070     9.6090 h1         1 1TI       0.057700
     42 H9          19.4950   -14.3060     8.4930 h1         1 1TI       0.057700
     43 H10         17.0000   -13.8520     8.6440 h4         1 1TI       0.160000
     44 H11         16.8360    -7.7730     4.4850 h1         1 1TI       0.062200
     45 H12         17.2500    -7.2400     6.1270 h1         1 1TI       0.062200
     46 H13         18.3980    -5.9800     3.9240 hc         1 1TI       0.073200
     47 H14         18.0270    -5.1330     5.4100 hc         1 1TI       0.073200
     48 H15         13.3210    -5.3640     6.7540 ha         1 1TI       0.155000
     49 H16         15.3050    -7.0640     2.3870 hc         1 1TI       0.043700
     50 H17         16.1350    -6.8050     0.8510 hc         1 1TI       0.043700
     51 H18         17.0540    -7.3480     2.2500 hc         1 1TI       0.043700
     52 H19         15.6470    -3.2100     1.7330 hc         1 1TI       0.081200
     53 H20         15.5340    -4.4830     0.4440 hc         1 1TI       0.081200
     54 H21         17.9880    -4.9620     0.6660 hc         1 1TI       0.081200
     55 H22         18.1330    -3.6970     1.9650 hc         1 1TI       0.081200
     56 H23         15.2460    -9.0850     5.7030 ha         1 1TI       0.147000
     57 H24         11.2000   -12.9730     7.8960 h1         1 1TI       0.064200
     58 H25         12.7460   -13.3160     7.1060 h1         1 1TI       0.064200
     59 H26         10.9830   -13.0300    10.3360 ha         1 1TI       0.128000
     60 H27         11.7980   -10.6610     8.1080 hn         1 1TI       0.346500
     61 O1          14.0250    -4.7910     4.4130 o          1 1TI      -0.497000
     62 F           11.8080   -13.7340    12.7180 f          1 1TI      -0.182000
     63 C16         19.6280   -14.5800     9.5460 c3         1 1TI       0.072900
@<TRIPOS>BOND
     1     1     4 ar  
     2     1    24 ar  
     3     2     4 1   
     4     2    34 1   
     5     2    35 1   
     6     2    36 1   
     7     3    25 2   
     8     4    14 ar  
     9     5     6 ar  
    10     5    28 ar  
    11     5    62 1   
    12     6     7 ar  
    13     6    37 1   
    14     7     8 ar  
    15     7     9 1   
    16     8    27 ar  
    17     8    38 1   
    18     9    10 1   
    19     9    11 2   
    20    10    30 2   
    21    10    39 1   
    22    11    31 1   
    23    11    43 1   
    24    12    13 1   
    25    12    32 1   
    26    12    44 1   
    27    12    45 1   
    28    13    15 1   
    29    13    46 1   
    30    13    47 1   
    31    14    22 ar  
    32    14    48 1   
    33    15    16 1   
    34    15    17 1   
    35    15    18 1   
    36    16    33 3   
    37    17    32 1   
    38    17    61 2   
    39    18    19 1   
    40    18    20 1   
    41    18    21 1   
    42    19    49 1   
    43    19    50 1   
    44    19    51 1   
    45    20    21 1   
    46    20    52 1   
    47    20    53 1   
    48    21    54 1   
    49    21    55 1   
    50    22    23 ar  
    51    22    32 1   
    52    23    24 ar  
    53    23    56 1   
    54    24    25 1   
    55    25    29 1   
    56    26    27 1   
    57    26    29 1   
    58    26    57 1   
    59    26    58 1   
    60    27    28 ar  
    61    28    59 1   
    62    29    60 1   
    63    30    31 1   
    64    31    63 1   
    65    40    63 1   
    66    41    63 1   
    67    42    63 1   
@<TRIPOS>SUBSTRUCTURE
     1 1TI         1 TEMP              0 ****  ****    0 ROOT
