@<TRIPOS>MOLECULE
1TI
   63    67     1     0     0
SMALL
abcg2


@<TRIPOS>ATOM
      1 N           12.5730    -8.6140     7.4440 nb         1 1TI      -0.700000
      2 C           11.3890    -6.6020     8.0450 c3         1 1TI      -0.147400
      3 O           14.5230   -11.3970     6.4740 o          1 1TI      -0.620100
      4 C1          12.5210    -7.2900     7.3480 ca         1 1TI       0.379300
      5 C10         12.5330   -13.6410    11.4640 ca         1 1TI       0.172000
      6 C11         13.8690   -13.9140    11.6630 ca         1 1TI      -0.147000
      7 C12         14.7530   -13.8050    10.5860 ca         1 1TI       0.048000
      8 C13         14.2460   -13.4180     9.3430 ca         1 1TI      -0.111000
      9 C14         16.1720   -14.0970    10.7650 cc         1 1TI      -0.169000
     10 C15         16.8160   -14.6850    11.8730 cc         1 1TI       0.258900
     11 C17         17.2120   -13.8530     9.8840 cd         1 1TI      -0.147000
     12 C18         16.7540    -7.2540     4.9350 c5         1 1TI       0.097000
     13 C19         17.6510    -6.1490     4.3860 c5         1 1TI      -0.082400
     14 C2          13.4660    -6.5590     6.6340 ca         1 1TI      -0.168000
     15 C20         16.6770    -5.0540     3.9170 c5         1 1TI      -0.034900
     16 C21         17.1560    -3.7320     4.3020 c1         1 1TI       0.312900
     17 C22         15.3980    -5.3340     4.7230 c          1 1TI       0.582000
     18 C23         16.3490    -5.1110     2.4160 cx         1 1TI      -0.108000
     19 C24         15.8070    -6.4390     1.9400 c3         1 1TI      -0.064100
     20 C25         15.8280    -3.8810     1.7390 cx         1 1TI      -0.114900
     21 C26         17.2270    -4.3540     1.4660 cx         1 1TI      -0.114900
     22 C3          14.5120    -7.2280     6.0010 ca         1 1TI       0.014000
     23 C4          14.5650    -8.6160     6.1250 ca         1 1TI      -0.169000
     24 C5          13.5700    -9.2490     6.8460 ca         1 1TI       0.315500
     25 C6          13.6050   -10.7500     6.9580 c          1 1TI       0.510600
     26 C7          12.3800   -12.6940     7.8200 c3         1 1TI       0.148300
     27 C8          12.8970   -13.1380     9.1670 ca         1 1TI      -0.085300
     28 C9          12.0220   -13.2520    10.2420 ca         1 1TI      -0.152000
     29 N1          12.5580   -11.2770     7.6010 ns         1 1TI      -0.481900
     30 N2          18.1150   -14.7960    11.6790 nd         1 1TI      -0.525800
     31 N3          18.3370   -14.2830    10.4730 na         1 1TI       0.134800
     32 N4          15.5100    -6.5720     5.2790 n          1 1TI      -0.223400
     33 N5          17.5430    -2.7000     4.6310 n1         1 1TI      -0.434000
     34 H1          11.3700    -6.8700     9.1020 hc         1 1TI       0.055367
     35 H2          11.4660    -5.5190     7.9670 hc         1 1TI       0.055367
     36 H3          10.4330    -6.9070     7.6160 hc         1 1TI       0.055367
     37 H4          14.2140   -14.2050    12.6460 ha         1 1TI       0.131000
     38 H5          14.9080   -13.3470     8.4890 ha         1 1TI       0.128000
     39 H6          16.3770   -15.0390    12.7940 h4         1 1TI       0.039100
     40 H7          20.3500   -13.7590    10.6180 h1         1 1TI       0.057700
     41 H8          20.0290   -15.2740     9.7510 h1         1 1TI       0.057700
     42 H9          19.6620   -13.7190     8.9880 h1         1 1TI       0.057700
     43 H10         17.2270   -13.4020     8.9050 h4         1 1TI       0.160000
     44 H11         16.5730    -8.0370     4.1980 h1         1 1TI       0.062200
     45 H12         17.1840    -7.7160     5.8240 h1         1 1TI       0.062200
     46 H13         18.2880    -6.4980     3.5760 hc         1 1TI       0.073200
     47 H14         18.2950    -5.7710     5.1780 hc         1 1TI       0.073200
     48 H15         13.3760    -5.4860     6.5990 ha         1 1TI       0.155000
     49 H16         14.8750    -6.7110     2.4390 hc         1 1TI       0.043700
     50 H17         15.5900    -6.3820     0.8740 hc         1 1TI       0.043700
     51 H18         16.5220    -7.2500     2.0770 hc         1 1TI       0.043700
     52 H19         15.7030    -2.9690     2.3080 hc         1 1TI       0.081200
     53 H20         15.0760    -4.0260     0.9730 hc         1 1TI       0.081200
     54 H21         17.4410    -4.8230     0.5140 hc         1 1TI       0.081200
     55 H22         18.0470    -3.7610     1.8530 hc         1 1TI       0.081200
     56 H23         15.3430    -9.2080     5.6680 ha         1 1TI       0.147000
     57 H24         11.3160   -12.9170     7.7370 h1         1 1TI       0.064200
     58 H25         12.8880   -13.2360     7.0230 h1         1 1TI       0.064200
     59 H26         10.9640   -13.0480    10.1280 ha         1 1TI       0.128000
     60 H27         11.8870   -10.6320     7.9920 hn         1 1TI       0.346500
     61 O1          14.4670    -4.5700     4.8010 o          1 1TI      -0.497000
     62 F           11.6920   -13.7580    12.5050 f          1 1TI      -0.182000
     63 C16         19.6740   -14.2600     9.9290 c3         1 1TI       0.072900
@<TRIPOS>BOND
     1     1     4 ar  
     2     1    24 ar  
     3     2     4 1   
     4     2    34 1   
     5     2    35 1   
     6     2    36 1   
     7     3    25 2   
     8     4    14 ar  
     9     5     6 ar  
    10     5    28 ar  
    11     5    62 1   
    12     6     7 ar  
    13     6    37 1   
    14     7     8 ar  
    15     7     9 1   
    16     8    27 ar  
    17     8    38 1   
    18     9    10 1   
    19     9    11 2   
    20    10    30 2   
    21    10    39 1   
    22    11    31 1   
    23    11    43 1   
    24    12    13 1   
    25    12    32 1   
    26    12    44 1   
    27    12    45 1   
    28    13    15 1   
    29    13    46 1   
    30    13    47 1   
    31    14    22 ar  
    32    14    48 1   
    33    15    16 1   
    34    15    17 1   
    35    15    18 1   
    36    16    33 3   
    37    17    32 1   
    38    17    61 2   
    39    18    19 1   
    40    18    20 1   
    41    18    21 1   
    42    19    49 1   
    43    19    50 1   
    44    19    51 1   
    45    20    21 1   
    46    20    52 1   
    47    20    53 1   
    48    21    54 1   
    49    21    55 1   
    50    22    23 ar  
    51    22    32 1   
    52    23    24 ar  
    53    23    56 1   
    54    24    25 1   
    55    25    29 1   
    56    26    27 1   
    57    26    29 1   
    58    26    57 1   
    59    26    58 1   
    60    27    28 ar  
    61    28    59 1   
    62    29    60 1   
    63    30    31 1   
    64    31    63 1   
    65    40    63 1   
    66    41    63 1   
    67    42    63 1   
@<TRIPOS>SUBSTRUCTURE
     1 1TI         1 TEMP              0 ****  ****    0 ROOT
