@<TRIPOS>MOLECULE
1TJ
   36    39     1     0     0
SMALL
bcc


@<TRIPOS>ATOM
      1 OAD          0.0240    -2.1670     0.9750 o          1 1TJ      -0.473100
      2 CAV         -0.5030    -1.2500     0.3870 c          1 1TJ       0.553900
      3 CAT          0.3180    -0.0770    -0.0570 cc         1 1TJ      -0.012400
      4 CAS          1.7670    -0.1970    -0.1520 ca         1 1TJ      -0.179800
      5 CAO          2.4490    -1.3510    -0.5850 ca         1 1TJ       0.209100
      6 OAE          1.8560    -2.4250    -1.1300 oh         1 1TJ      -0.484100
      7 CAJ          3.8350    -1.4100    -0.4960 ca         1 1TJ      -0.179000
      8 CAN          4.5770    -0.3230    -0.0600 ca         1 1TJ      -0.005300
      9 CAA          6.0720    -0.3940    -0.0050 c3         1 1TJ      -0.055800
     10 CAK          3.9100     0.8630     0.2530 ca         1 1TJ      -0.169000
     11 CAQ          2.5340     0.9330     0.1890 ca         1 1TJ      -0.004300
     12 CAL          1.8310     2.2250     0.4860 c6         1 1TJ      -0.147100
     13 CAM          0.5460     2.3430    -0.2830 c          1 1TJ       0.590300
     14 OAB          0.2230     3.3230    -0.9050 o          1 1TJ      -0.469100
     15 CAR         -0.3020     1.1260    -0.1550 cd         1 1TJ      -0.248400
     16 CAU         -1.7710     1.2550    -0.1410 c          1 1TJ       0.609900
     17 OAC         -2.3020     2.3580    -0.2180 o          1 1TJ      -0.533100
     18 CAX         -2.5760     0.0370    -0.0660 ca         1 1TJ      -0.263600
     19 CAW         -1.9610    -1.2020     0.1650 ca         1 1TJ      -0.093600
     20 CAI         -2.7010    -2.3650     0.2380 ca         1 1TJ      -0.126000
     21 CAG         -4.0820    -2.2970     0.0590 ca         1 1TJ      -0.070000
     22 CAH         -4.7130    -1.0910    -0.1540 ca         1 1TJ      -0.164000
     23 CAP         -3.9730     0.0970    -0.2040 ca         1 1TJ       0.220100
     24 OAF         -4.6320     1.2340    -0.3850 oh         1 1TJ      -0.493100
     25 H1           0.9700    -2.2360    -1.4520 ho         1 1TJ       0.433000
     26 H2           4.3350    -2.3170    -0.8150 ha         1 1TJ       0.153000
     27 H3           6.5040    -0.1200    -0.9700 hc         1 1TJ       0.050367
     28 H4           6.4760     0.2920     0.7380 hc         1 1TJ       0.050367
     29 H5           6.4160    -1.4000     0.2320 hc         1 1TJ       0.050367
     30 H6           4.4760     1.7410     0.5390 ha         1 1TJ       0.140000
     31 H7           1.5620     2.2600     1.5510 hc         1 1TJ       0.086700
     32 H8           2.4790     3.0780     0.2880 hc         1 1TJ       0.086700
     33 H9          -2.2200    -3.3150     0.4210 ha         1 1TJ       0.157000
     34 H10         -4.6720    -3.2030     0.0970 ha         1 1TJ       0.143000
     35 H11         -5.7870    -1.0450    -0.2760 ha         1 1TJ       0.157000
     36 H12         -3.9860     1.9720    -0.3650 ho         1 1TJ       0.479000
@<TRIPOS>BOND
     1     1     2 2   
     2     2     3 1   
     3     2    19 1   
     4     3     4 1   
     5     3    15 2   
     6     4     5 ar  
     7     4    11 ar  
     8     5     6 1   
     9     5     7 ar  
    10     6    25 1   
    11     7     8 ar  
    12     7    26 1   
    13     8     9 1   
    14     8    10 ar  
    15     9    27 1   
    16     9    28 1   
    17     9    29 1   
    18    10    11 ar  
    19    10    30 1   
    20    11    12 1   
    21    12    13 1   
    22    12    31 1   
    23    12    32 1   
    24    13    14 2   
    25    13    15 1   
    26    15    16 1   
    27    16    17 2   
    28    16    18 1   
    29    18    19 ar  
    30    18    23 ar  
    31    19    20 ar  
    32    20    21 ar  
    33    20    33 1   
    34    21    22 ar  
    35    21    34 1   
    36    22    23 ar  
    37    22    35 1   
    38    23    24 1   
    39    24    36 1   
@<TRIPOS>SUBSTRUCTURE
     1 1TJ         1 TEMP              0 ****  ****    0 ROOT
