@<TRIPOS>MOLECULE
1TJ
   36    39     1     0     0
SMALL
No Charge or Current Charge


@<TRIPOS>ATOM
      1 OAD         -0.1240    -2.4510     0.8070 o          1 1TJ      -0.473100
      2 CAV         -0.5720    -1.3750     0.4260 c          1 1TJ       0.553900
      3 CAT          0.3020    -0.1940     0.1420 cc         1 1TJ      -0.012400
      4 CAS          1.8020    -0.2610     0.0510 ca         1 1TJ      -0.179800
      5 CAO          2.5220    -1.3900    -0.4430 ca         1 1TJ       0.209100
      6 OAE          1.9020    -2.5280    -0.8570 oh         1 1TJ      -0.523100
      7 CAJ          3.9200    -1.3580    -0.5650 ca         1 1TJ      -0.161000
      8 CAN          4.6520    -0.2180    -0.2090 ca         1 1TJ      -0.005300
      9 CAA          6.1660    -0.1960    -0.3440 c3         1 1TJ      -0.055800
     10 CAK          3.9610     0.9120     0.2450 ca         1 1TJ      -0.151000
     11 CAQ          2.5610     0.8930     0.3560 ca         1 1TJ      -0.004300
     12 CAL          1.8290     2.1310     0.8040 c6         1 1TJ      -0.147100
     13 CAM          0.6020     2.2730    -0.0840 c          1 1TJ       0.590300
     14 OAB          0.4170     3.2760    -0.7600 o          1 1TJ      -0.469100
     15 CAR         -0.2600     1.0690    -0.0880 cd         1 1TJ      -0.248400
     16 CAU         -1.7130     1.2560    -0.3000 c          1 1TJ       0.609900
     17 OAC         -2.2070     2.3560    -0.5160 o          1 1TJ      -0.533100
     18 CAX         -2.6080     0.0450    -0.1970 ca         1 1TJ      -0.263600
     19 CAW         -2.0550    -1.2060     0.1810 ca         1 1TJ      -0.093600
     20 CAI         -2.9070    -2.3280     0.3150 ca         1 1TJ      -0.108000
     21 CAG         -4.2830    -2.2210     0.0730 ca         1 1TJ      -0.052000
     22 CAH         -4.8260    -0.9890    -0.3060 ca         1 1TJ      -0.146000
     23 CAP         -4.0030     0.1370    -0.4370 ca         1 1TJ       0.220100
     24 OAF         -4.5870     1.3130    -0.7960 oh         1 1TJ      -0.532100
     25 H1           1.1210    -2.6670    -0.2700 ho         1 1TJ       0.472000
     26 H2           4.4400    -2.2330    -0.9460 ha         1 1TJ       0.135000
     27 H3           6.4640     0.1590    -1.3370 hc         1 1TJ       0.050367
     28 H4           6.6240     0.4660     0.4000 hc         1 1TJ       0.050367
     29 H5           6.5940    -1.1960    -0.2020 hc         1 1TJ       0.050367
     30 H6           4.5140     1.8140     0.5010 ha         1 1TJ       0.122000
     31 H7           1.4840     1.9230     1.8250 hc         1 1TJ       0.086700
     32 H8           2.4410     3.0410     0.7750 hc         1 1TJ       0.086700
     33 H9          -2.5030    -3.2970     0.6040 ha         1 1TJ       0.139000
     34 H10         -4.9250    -3.0940     0.1770 ha         1 1TJ       0.125000
     35 H11         -5.8940    -0.9020    -0.4940 ha         1 1TJ       0.139000
     36 H12         -3.8680     1.9940    -0.7860 ho         1 1TJ       0.518000
@<TRIPOS>BOND
     1     1     2 2   
     2     2     3 1   
     3     2    19 1   
     4     3     4 1   
     5     3    15 2   
     6     4     5 ar  
     7     4    11 ar  
     8     5     6 1   
     9     5     7 ar  
    10     6    25 1   
    11     7     8 ar  
    12     7    26 1   
    13     8     9 1   
    14     8    10 ar  
    15     9    27 1   
    16     9    28 1   
    17     9    29 1   
    18    10    11 ar  
    19    10    30 1   
    20    11    12 1   
    21    12    13 1   
    22    12    31 1   
    23    12    32 1   
    24    13    14 2   
    25    13    15 1   
    26    15    16 1   
    27    16    17 2   
    28    16    18 1   
    29    18    19 ar  
    30    18    23 ar  
    31    19    20 ar  
    32    20    21 ar  
    33    20    33 1   
    34    21    22 ar  
    35    21    34 1   
    36    22    23 ar  
    37    22    35 1   
    38    23    24 1   
    39    24    36 1   
@<TRIPOS>SUBSTRUCTURE
     1 1TJ         1 TEMP              0 ****  ****    0 ROOT
