@<TRIPOS>MOLECULE
1TM
   33    35     1     0     0
SMALL
No Charge or Current Charge


@<TRIPOS>ATOM
      1 CAO         -2.6410    -0.2920     0.7360 ca         1 1TM      -0.068500
      2 CAP         -3.2680    -1.5510     0.6800 ca         1 1TM      -0.178500
      3 CAQ         -2.8000    -2.5300    -0.2090 ca         1 1TM       0.135100
      4 OAT         -3.4020    -3.7500    -0.2690 oh         1 1TM      -0.536100
      5 CAR         -1.7110    -2.2500    -1.0440 ca         1 1TM      -0.178500
      6 CAS         -1.0830    -0.9940    -0.9890 ca         1 1TM      -0.068500
      7 CAN         -1.5300    -0.0020    -0.0870 ca         1 1TM      -0.031000
      8 CAJ         -0.8890     1.3240    -0.0590 cc         1 1TM      -0.178000
      9 CAK         -1.4400     2.5920     0.1970 cc         1 1TM       0.473900
     10 NAM         -2.7510     2.8400     0.3520 nv         1 1TM      -1.001900
     11 NAL         -0.6060     3.5870     0.1840 nd         1 1TM      -0.572800
     12 NAA          0.6040     2.9330    -0.0600 na         1 1TM      -0.004200
     13 CAB          0.4700     1.5340    -0.1680 cd         1 1TM      -0.046000
     14 CAC          1.6260     0.6060    -0.1320 ca         1 1TM      -0.079000
     15 CAD          1.5530    -0.6680     0.4770 ca         1 1TM      -0.050500
     16 CAE          2.6760    -1.5140     0.5140 ca         1 1TM      -0.177500
     17 CAF          3.8910    -1.0930    -0.0430 ca         1 1TM       0.149100
     18 OAI          4.9840    -1.9060    -0.0100 oh         1 1TM      -0.529100
     19 CAG          3.9880     0.1770    -0.6240 ca         1 1TM      -0.177500
     20 CAH          2.8670     1.0250    -0.6610 ca         1 1TM      -0.050500
     21 H1          -3.0050     0.4440     1.4480 ha         1 1TM       0.122500
     22 H2          -4.1120    -1.7570     1.3330 ha         1 1TM       0.120000
     23 H3          -4.1400    -3.7640     0.3780 ho         1 1TM       0.463000
     24 H4          -1.3540    -3.0040    -1.7420 ha         1 1TM       0.120000
     25 H5          -0.2560    -0.7840    -1.6630 ha         1 1TM       0.122500
     26 H6          -3.3970     2.1340     0.0190 hn         1 1TM       0.442000
     27 H7          -3.0470     3.8060     0.2710 hn         1 1TM       0.442000
     28 H9           0.6400    -0.9990     0.9630 ha         1 1TM       0.123000
     29 H10          2.5940    -2.4890     0.9890 ha         1 1TM       0.125500
     30 H11          4.7340    -2.7450     0.4320 ho         1 1TM       0.467000
     31 H12          4.9320     0.5080    -1.0490 ha         1 1TM       0.125500
     32 H13          2.9650     2.0030    -1.1270 ha         1 1TM       0.123000
     33 H8           1.4830     3.4460    -0.0850 hn         1 1TM       0.374000
@<TRIPOS>BOND
     1     1     2 ar  
     2     1     7 ar  
     3     1    21 1   
     4     2     3 ar  
     5     2    22 1   
     6     3     4 1   
     7     3     5 ar  
     8     4    23 1   
     9     5     6 ar  
    10     5    24 1   
    11     6     7 ar  
    12     6    25 1   
    13     7     8 1   
    14     8     9 1   
    15     8    13 2   
    16     9    10 1   
    17     9    11 2   
    18    10    26 1   
    19    10    27 1   
    20    11    12 1   
    21    12    13 1   
    22    12    33 1   
    23    13    14 1   
    24    14    15 ar  
    25    14    20 ar  
    26    15    16 ar  
    27    15    28 1   
    28    16    17 ar  
    29    16    29 1   
    30    17    18 1   
    31    17    19 ar  
    32    18    30 1   
    33    19    20 ar  
    34    19    31 1   
    35    20    32 1   
@<TRIPOS>SUBSTRUCTURE
     1 1TM         1 TEMP              0 ****  ****    0 ROOT
