@<TRIPOS>MOLECULE
1TM
   33    35     1     0     0
SMALL
bcc


@<TRIPOS>ATOM
      1 CAO         -2.6390    -0.3390     0.7680 ca         1 1TM      -0.086500
      2 CAP         -3.3050    -1.5520     0.6630 ca         1 1TM      -0.196500
      3 CAQ         -2.8840    -2.4990    -0.2620 ca         1 1TM       0.135100
      4 OAT         -3.4840    -3.7000    -0.4080 oh         1 1TM      -0.497100
      5 CAR         -1.7960    -2.2120    -1.0830 ca         1 1TM      -0.196500
      6 CAS         -1.1470    -0.9960    -0.9750 ca         1 1TM      -0.086500
      7 CAN         -1.5470    -0.0330    -0.0440 ca         1 1TM      -0.031000
      8 CAJ         -0.8520     1.2520     0.0760 cc         1 1TM      -0.243300
      9 CAK         -1.4410     2.5410     0.1620 cc         1 1TM       0.539200
     10 NAM         -2.7940     2.8270     0.2250 nv         1 1TM      -0.891500
     11 NAL         -0.5300     3.4900     0.2060 nd         1 1TM      -0.572800
     12 NAA          0.6430     2.8440     0.1430 na         1 1TM      -0.004600
     13 CAB          0.5110     1.5080     0.0820 cd         1 1TM       0.004700
     14 CAC          1.6710     0.6210     0.0260 ca         1 1TM      -0.079000
     15 CAD          1.7070    -0.5670     0.7520 ca         1 1TM      -0.068500
     16 CAE          2.8120    -1.4010     0.7040 ca         1 1TM      -0.195500
     17 CAF          3.9120    -1.0600    -0.0780 ca         1 1TM       0.149100
     18 OAI          5.0150    -1.8310    -0.1550 oh         1 1TM      -0.490100
     19 CAG          3.8930     0.1320    -0.8030 ca         1 1TM      -0.195500
     20 CAH          2.7870     0.9500    -0.7490 ca         1 1TM      -0.068500
     21 H1          -2.9770     0.3730     1.5110 ha         1 1TM       0.140500
     22 H2          -4.1480    -1.7460     1.3170 ha         1 1TM       0.138000
     23 H3          -4.2490    -3.7680     0.1750 ho         1 1TM       0.424000
     24 H4          -1.4660    -2.9410    -1.8130 ha         1 1TM       0.138000
     25 H5          -0.3130    -0.7920    -1.6360 ha         1 1TM       0.140500
     26 H6          -3.3650     2.1940    -0.3170 hn         1 1TM       0.386800
     27 H7          -3.0050     3.7800    -0.0330 hn         1 1TM       0.386800
     28 H9           0.8680    -0.8450     1.3770 ha         1 1TM       0.141000
     29 H10          2.8170    -2.3130     1.2900 ha         1 1TM       0.143500
     30 H11          4.8610    -2.6700     0.2930 ho         1 1TM       0.428000
     31 H12          4.7460     0.4010    -1.4140 ha         1 1TM       0.143500
     32 H13          2.7810     1.8570    -1.3430 ha         1 1TM       0.141000
     33 H8           1.4940     3.3610     0.2950 hn         1 1TM       0.323700
@<TRIPOS>BOND
     1     1     2 ar  
     2     1     7 ar  
     3     1    21 1   
     4     2     3 ar  
     5     2    22 1   
     6     3     4 1   
     7     3     5 ar  
     8     4    23 1   
     9     5     6 ar  
    10     5    24 1   
    11     6     7 ar  
    12     6    25 1   
    13     7     8 1   
    14     8     9 1   
    15     8    13 2   
    16     9    10 1   
    17     9    11 2   
    18    10    26 1   
    19    10    27 1   
    20    11    12 1   
    21    12    13 1   
    22    12    33 1   
    23    13    14 1   
    24    14    15 ar  
    25    14    20 ar  
    26    15    16 ar  
    27    15    28 1   
    28    16    17 ar  
    29    16    29 1   
    30    17    18 1   
    31    17    19 ar  
    32    18    30 1   
    33    19    20 ar  
    34    19    31 1   
    35    20    32 1   
@<TRIPOS>SUBSTRUCTURE
     1 1TM         1 TEMP              0 ****  ****    0 ROOT
