@<TRIPOS>MOLECULE
1TN
   44    45     1     0     0
SMALL
abcg2


@<TRIPOS>ATOM
      1 C10         -6.7150     0.6520    -0.0640 c3         1 1TN      -0.075400
      2 C15          3.0760    -0.2710    -0.3170 ca         1 1TN       0.212100
      3 C17          5.3880    -0.5200     0.3940 ca         1 1TN      -0.023000
      4 C20          2.9320    -1.6530    -0.2310 ca         1 1TN      -0.195000
      5 C01         -1.2700    -0.6270    -1.5990 ca         1 1TN      -0.138000
      6 C02          0.0470    -0.2000    -1.7070 ca         1 1TN      -0.067000
      7 C03          0.7760     0.0830    -0.5690 ca         1 1TN       0.043100
      8 C04          0.2030    -0.0530     0.6960 ca         1 1TN       0.132100
      9 C05         -1.1130    -0.4880     0.7890 ca         1 1TN      -0.198000
     10 C06         -1.8600    -0.7820    -0.3480 ca         1 1TN      -0.026300
     11 C07         -3.2910    -1.2200    -0.2130 c3         1 1TN      -0.036100
     12 C08         -4.2730    -0.0490    -0.2460 c3         1 1TN      -0.072400
     13 C09         -5.7120    -0.4930    -0.0150 c3         1 1TN      -0.075400
     14 C11         -8.1430     0.2080     0.2300 c3         1 1TN      -0.074400
     15 O14          2.0680     0.5480    -0.6720 os         1 1TN      -0.203200
     16 C16          4.3240     0.2810    -0.0020 ca         1 1TN      -0.207200
     17 C18          5.2330    -1.8910     0.4580 ca         1 1TN      -0.154000
     18 C19          4.0000    -2.4490     0.1440 ca         1 1TN      -0.038000
     19 N21          4.5500     1.7100    -0.0720 no         1 1TN       0.703200
     20 O22          5.3140     2.1930     0.7330 o          1 1TN      -0.394000
     21 O23          3.9860     2.3410    -0.9330 o          1 1TN      -0.394000
     22 H1          -6.4220     1.4240     0.6560 hc         1 1TN       0.039200
     23 H2          -6.6780     1.1290    -1.0490 hc         1 1TN       0.039200
     24 H3           6.3390    -0.0700     0.6380 ha         1 1TN       0.147000
     25 H4           1.9810    -2.1140    -0.4640 ha         1 1TN       0.134000
     26 H5          -1.8320    -0.8520    -2.4970 ha         1 1TN       0.124000
     27 H6           0.5110    -0.0860    -2.6780 ha         1 1TN       0.136000
     28 H7          -1.5630    -0.6070     1.7700 ha         1 1TN       0.118000
     29 H8          -3.5370    -1.9220    -1.0140 hc         1 1TN       0.049200
     30 H9          -3.4160    -1.7660     0.7260 hc         1 1TN       0.049200
     31 H10         -3.9910     0.6830     0.5180 hc         1 1TN       0.044700
     32 H11         -5.7790    -0.9940     0.9570 hc         1 1TN       0.037200
     33 H12         -8.4350    -0.5670    -0.4850 hc         1 1TN       0.036200
     34 H13         -8.1750    -0.2650     1.2170 hc         1 1TN       0.036200
     35 H15          0.4800     0.0950     2.5770 ho         1 1TN       0.471000
     36 H16          6.0660    -2.5150     0.7490 ha         1 1TN       0.128000
     37 H17          3.8640    -3.5210     0.1910 ha         1 1TN       0.120000
     38 C12         -9.1450     1.3520     0.1800 c3         1 1TN      -0.088100
     39 H18         -4.1930     0.4680    -1.2080 hc         1 1TN       0.044700
     40 H19         -5.9830    -1.2480    -0.7610 hc         1 1TN       0.037200
     41 H14         -8.9040     2.1230     0.9140 hc         1 1TN       0.032367
     42 H20         -9.1530     1.8270    -0.8030 hc         1 1TN       0.032367
     43 H21        -10.1590     1.0060     0.3860 hc         1 1TN       0.032367
     44 O13          0.9720     0.2360     1.7600 oh         1 1TN      -0.518100
@<TRIPOS>BOND
     1     1    13 1   
     2     1    14 1   
     3     1    22 1   
     4     1    23 1   
     5     2     4 ar  
     6     2    15 1   
     7     2    16 ar  
     8     3    16 ar  
     9     3    17 ar  
    10     3    24 1   
    11     4    18 ar  
    12     4    25 1   
    13     5     6 ar  
    14     5    10 ar  
    15     5    26 1   
    16     6     7 ar  
    17     6    27 1   
    18     7     8 ar  
    19     7    15 1   
    20     8     9 ar  
    21     8    44 1   
    22     9    10 ar  
    23     9    28 1   
    24    10    11 1   
    25    11    12 1   
    26    11    29 1   
    27    11    30 1   
    28    12    13 1   
    29    12    31 1   
    30    12    39 1   
    31    13    32 1   
    32    13    40 1   
    33    14    33 1   
    34    14    34 1   
    35    14    38 1   
    36    16    19 1   
    37    17    18 ar  
    38    17    36 1   
    39    18    37 1   
    40    19    20 1   
    41    19    21 1   
    42    35    44 1   
    43    38    41 1   
    44    38    42 1   
    45    38    43 1   
@<TRIPOS>SUBSTRUCTURE
     1 1TN         1 TEMP              0 ****  ****    0 ROOT
