@<TRIPOS>MOLECULE
1TN
   44    45     1     0     0
SMALL
No Charge or Current Charge


@<TRIPOS>ATOM
      1 C10         -6.7470     0.6970     0.0280 c3         1 1TN      -0.075400
      2 C15          3.1790    -0.3290    -0.3860 ca         1 1TN       0.212100
      3 C17          5.4480    -0.4090     0.5110 ca         1 1TN      -0.023000
      4 C20          3.0960    -1.7320    -0.2680 ca         1 1TN      -0.195000
      5 C01         -1.3270    -0.6840    -1.6700 ca         1 1TN      -0.138000
      6 C02          0.0080    -0.2700    -1.8200 ca         1 1TN      -0.067000
      7 C03          0.7980    -0.0160    -0.6870 ca         1 1TN       0.043100
      8 C04          0.2420    -0.1570     0.6070 ca         1 1TN       0.132100
      9 C05         -1.0940    -0.5710     0.7490 ca         1 1TN      -0.198000
     10 C06         -1.8820    -0.8410    -0.3860 ca         1 1TN      -0.026300
     11 C07         -3.3300    -1.2830    -0.2260 c3         1 1TN      -0.036100
     12 C08         -4.3010    -0.0850    -0.1800 c3         1 1TN      -0.072400
     13 C09         -5.7790    -0.5050    -0.0190 c3         1 1TN      -0.075400
     14 C11         -8.2240     0.2770     0.1890 c3         1 1TN      -0.074400
     15 O14          2.1030     0.3890    -0.8670 os         1 1TN      -0.203200
     16 C16          4.3660     0.3360    -0.0090 ca         1 1TN      -0.207200
     17 C18          5.3510    -1.8060     0.6320 ca         1 1TN      -0.154000
     18 C19          4.1790    -2.4690     0.2390 ca         1 1TN      -0.038000
     19 N21          4.4860     1.8130    -0.1320 no         1 1TN       0.703200
     20 O22          5.1530     2.4050     0.7270 o          1 1TN      -0.394000
     21 O23          4.0790     2.3490    -1.1700 o          1 1TN      -0.394000
     22 H1          -6.4670     1.3530     0.8610 hc         1 1TN       0.039200
     23 H2          -6.6380     1.2830    -0.8930 hc         1 1TN       0.039200
     24 H3           6.3690     0.0880     0.8140 ha         1 1TN       0.147000
     25 H4           2.1930    -2.2560    -0.5680 ha         1 1TN       0.134000
     26 H5          -1.9300    -0.8810    -2.5530 ha         1 1TN       0.124000
     27 H6           0.4330    -0.1510    -2.8140 ha         1 1TN       0.136000
     28 H7          -1.5280    -0.6810     1.7400 ha         1 1TN       0.118000
     29 H8          -3.6140    -1.9450    -1.0540 hc         1 1TN       0.049200
     30 H9          -3.4430    -1.8750     0.6900 hc         1 1TN       0.049200
     31 H10         -4.0190     0.5720     0.6530 hc         1 1TN       0.044700
     32 H11         -5.8880    -1.0920     0.9020 hc         1 1TN       0.037200
     33 H12         -8.5090    -0.3780    -0.6440 hc         1 1TN       0.036200
     34 H13         -8.3380    -0.3080     1.1100 hc         1 1TN       0.036200
     35 H15          0.4140    -0.0330     2.5150 ho         1 1TN       0.471000
     36 H16          6.1890    -2.3750     1.0280 ha         1 1TN       0.128000
     37 H17          4.1080    -3.5510     0.3300 ha         1 1TN       0.120000
     38 C12         -9.1910     1.4760     0.2360 c3         1 1TN      -0.088100
     39 H18         -4.1900     0.5020    -1.1000 hc         1 1TN       0.044700
     40 H19         -6.0590    -1.1620    -0.8520 hc         1 1TN       0.037200
     41 H14         -8.9540     2.1330     1.0810 hc         1 1TN       0.032367
     42 H20         -9.1270     2.0620    -0.6890 hc         1 1TN       0.032367
     43 H21        -10.2250     1.1290     0.3500 hc         1 1TN       0.032367
     44 O13          0.9780     0.1170     1.7270 oh         1 1TN      -0.518100
@<TRIPOS>BOND
     1     1    13 1   
     2     1    14 1   
     3     1    22 1   
     4     1    23 1   
     5     2     4 ar  
     6     2    15 1   
     7     2    16 ar  
     8     3    16 ar  
     9     3    17 ar  
    10     3    24 1   
    11     4    18 ar  
    12     4    25 1   
    13     5     6 ar  
    14     5    10 ar  
    15     5    26 1   
    16     6     7 ar  
    17     6    27 1   
    18     7     8 ar  
    19     7    15 1   
    20     8     9 ar  
    21     8    44 1   
    22     9    10 ar  
    23     9    28 1   
    24    10    11 1   
    25    11    12 1   
    26    11    29 1   
    27    11    30 1   
    28    12    13 1   
    29    12    31 1   
    30    12    39 1   
    31    13    32 1   
    32    13    40 1   
    33    14    33 1   
    34    14    34 1   
    35    14    38 1   
    36    16    19 1   
    37    17    18 ar  
    38    17    36 1   
    39    18    37 1   
    40    19    20 1   
    41    19    21 1   
    42    35    44 1   
    43    38    41 1   
    44    38    42 1   
    45    38    43 1   
@<TRIPOS>SUBSTRUCTURE
     1 1TN         1 TEMP              0 ****  ****    0 ROOT
