@<TRIPOS>MOLECULE
1TQ
   31    32     1     0     0
SMALL
bcc


@<TRIPOS>ATOM
      1 N            2.9180    -6.4340    47.0320 n8         1 1TQ      -0.886800
      2 CA           3.7700    -5.8920    48.0800 c3         1 1TQ       0.015500
      3 C            3.0430    -5.1460    49.2310 c          1 1TQ       0.901600
      4 O            1.8040    -5.0380    49.1590 o          1 1TQ      -0.843800
      5 CB           4.8440    -4.9840    47.4610 c3         1 1TQ       0.016800
      6 CG           4.2790    -3.7820    46.7730 cc         1 1TQ      -0.099400
      7 CD1          3.9090    -2.5990    47.3480 cd         1 1TQ      -0.090100
      8 CD2          3.9780    -3.6510    45.3770 ca         1 1TQ      -0.085800
      9 NE1          3.3970    -1.7490    46.4040 na         1 1TQ      -0.183400
     10 CE2          3.4290    -2.3660    45.1880 ca         1 1TQ      -0.079200
     11 CE3          4.1400    -4.4820    44.2650 ca         1 1TQ      -0.053000
     12 CZ2          3.0250    -1.9100    43.9340 ca         1 1TQ       0.020100
     13 CZ3          3.7640    -4.0350    43.0170 ca         1 1TQ      -0.181000
     14 CH2          3.1950    -2.7550    42.8410 ca         1 1TQ       0.047600
     15 OXT          3.7790    -4.7180    50.1470 o          1 1TQ      -0.843800
     16 O2           2.5150    -0.6610    43.7360 oh         1 1TQ      -0.535100
     17 CH3          2.8130    -2.8240    40.3780 c          1 1TQ       0.670900
     18 N2           2.7730    -2.2570    41.5990 ns         1 1TQ      -0.468100
     19 O1           3.2430    -3.9240    40.0890 o          1 1TQ      -0.600100
     20 H            2.2230    -7.0320    47.4630 hn         1 1TQ       0.328800
     21 H2           2.3760    -5.6730    46.6390 hn         1 1TQ       0.328800
     22 HA           4.3020    -6.7370    48.5340 h1         1 1TQ       0.039700
     23 HB2          5.4320    -5.5670    46.7480 hc         1 1TQ       0.038200
     24 HB3          5.5290    -4.6760    48.2510 hc         1 1TQ       0.038200
     25 HD1          3.9720    -2.2920    48.3800 h4         1 1TQ       0.187000
     26 HE1          3.0850    -0.8110    46.5880 hn         1 1TQ       0.286700
     27 HE3          4.5610    -5.4740    44.3730 ha         1 1TQ       0.148000
     28 HZ3          3.8940    -4.6780    42.1620 ha         1 1TQ       0.154000
     29 HO2          1.7990    -0.4810    44.3580 ho         1 1TQ       0.411000
     30 HH3          2.3890    -2.1430    39.6250 h5         1 1TQ      -0.007800
     31 HN2          2.3690    -1.3320    41.6270 hn         1 1TQ       0.322500
@<TRIPOS>BOND
     1     1     2 1   
     2     1    20 1   
     3     1    21 1   
     4     2     3 1   
     5     2     5 1   
     6     2    22 1   
     7     3     4 1   
     8     3    15 1   
     9     5     6 1   
    10     5    23 1   
    11     5    24 1   
    12     6     7 2   
    13     6     8 1   
    14     7     9 1   
    15     7    25 1   
    16     8    10 ar  
    17     8    11 ar  
    18     9    10 1   
    19     9    26 1   
    20    10    12 ar  
    21    11    13 ar  
    22    11    27 1   
    23    12    14 ar  
    24    12    16 1   
    25    13    14 ar  
    26    13    28 1   
    27    14    18 1   
    28    16    29 1   
    29    17    18 1   
    30    17    19 2   
    31    17    30 1   
    32    18    31 1   
@<TRIPOS>SUBSTRUCTURE
     1 1TQ         1 TEMP              0 ****  ****    0 ROOT
