@<TRIPOS>MOLECULE
1TR
   46    49     1     0     0
SMALL
No Charge or Current Charge


@<TRIPOS>ATOM
      1 C4          -1.0350    -1.5830    -0.1900 ca         1 1TR       0.259800
      2 C5          -0.8010    -2.8220    -0.8140 ca         1 1TR      -0.296000
      3 C6          -1.5880    -3.9160    -0.4210 ca         1 1TR       0.154900
      4 N1          -2.5240    -3.7960     0.5390 nb         1 1TR      -0.247000
      5 N3          -1.9560    -1.4720     0.7900 nb         1 1TR      -0.239000
      6 CAV         -2.2260     2.5780     0.3170 ca         1 1TR      -0.052500
      7 CAW         -3.5420     3.0730     0.3690 ca         1 1TR      -0.161000
      8 CAX         -4.5610     2.4230    -0.3410 ca         1 1TR       0.173000
      9 FAY         -5.8240     2.9010    -0.2930 f          1 1TR      -0.182000
     10 CAZ         -4.2730     1.2880    -1.1110 ca         1 1TR      -0.161000
     11 CBA         -2.9580     0.7920    -1.1630 ca         1 1TR      -0.052500
     12 CAU         -1.9270     1.4150    -0.4250 ca         1 1TR      -0.029800
     13 CAI         -0.5420     0.9400    -0.5140 cc         1 1TR       0.176400
     14 NAH          0.5380     1.7860    -0.6270 nc         1 1TR      -0.297600
     15 CAG          1.5840     0.9830    -0.6450 cd         1 1TR      -0.062000
     16 CAF          2.9590     1.3530    -0.6960 cd         1 1TR      -0.081000
     17 CAE          3.8810     0.3280    -0.6060 cc         1 1TR      -0.066300
     18 CAD          5.3750     0.5600    -0.6470 c3         1 1TR       0.210100
     19 NAB          6.0570     0.2890     0.6440 n3         1 1TR      -0.715600
     20 CAC          7.5310     0.3230     0.5190 c3         1 1TR       0.147600
     21 CAA          5.5680     1.1410     1.7540 c3         1 1TR       0.147600
     22 CAM          3.4000    -1.0260    -0.4160 cc         1 1TR      -0.121000
     23 CAL          2.0560    -1.3810    -0.3530 cd         1 1TR      -0.117000
     24 NAK          1.1700    -0.3230    -0.5810 na         1 1TR       0.147100
     25 CAJ         -0.2040    -0.4040    -0.4780 cd         1 1TR      -0.259900
     26 C2          -2.6500    -2.5790     1.0880 ca         1 1TR       0.386900
     27 NAQ         -3.5830    -2.4600     2.0660 nv         1 1TR      -1.065900
     28 H1          -0.0540    -2.9290    -1.5950 ha         1 1TR       0.136000
     29 H2          -1.4660    -4.8980    -0.8760 h4         1 1TR       0.021100
     30 H3          -1.4380     3.0910     0.8650 ha         1 1TR       0.124000
     31 H4          -3.7690     3.9610     0.9530 ha         1 1TR       0.130500
     32 H5          -5.0640     0.7980    -1.6730 ha         1 1TR       0.130500
     33 H6          -2.7400    -0.0750    -1.7830 ha         1 1TR       0.124000
     34 H7           3.2640     2.3910    -0.7790 ha         1 1TR       0.143000
     35 H8           5.7910    -0.0910    -1.4290 h1         1 1TR       0.043700
     36 H9           5.5670     1.5940    -0.9630 h1         1 1TR       0.043700
     37 H11          7.8790     1.3290     0.2460 h1         1 1TR       0.033533
     38 H12          8.0080     0.0400     1.4670 h1         1 1TR       0.033533
     39 H13          7.8720    -0.3800    -0.2520 h1         1 1TR       0.033533
     40 H14          4.4890     1.0090     1.9080 h1         1 1TR       0.033533
     41 H15          6.0720     0.8800     2.6940 h1         1 1TR       0.033533
     42 H16          5.7590     2.2030     1.5460 h1         1 1TR       0.033533
     43 H17          4.1480    -1.8040    -0.2940 ha         1 1TR       0.145000
     44 H18          1.6750    -2.3760    -0.1710 h4         1 1TR       0.152000
     45 H19         -3.9670    -3.3080     2.4760 hn         1 1TR       0.503000
     46 H20         -3.5660    -1.6330     2.6580 hn         1 1TR       0.503000
@<TRIPOS>BOND
     1     1     2 ar  
     2     1     5 ar  
     3     1    25 1   
     4     2     3 ar  
     5     2    28 1   
     6     3     4 ar  
     7     3    29 1   
     8     4    26 ar  
     9     5    26 ar  
    10     6     7 ar  
    11     6    12 ar  
    12     6    30 1   
    13     7     8 ar  
    14     7    31 1   
    15     8     9 1   
    16     8    10 ar  
    17    10    11 ar  
    18    10    32 1   
    19    11    12 ar  
    20    11    33 1   
    21    12    13 1   
    22    13    14 1   
    23    13    25 2   
    24    14    15 2   
    25    15    16 1   
    26    15    24 1   
    27    16    17 2   
    28    16    34 1   
    29    17    18 1   
    30    17    22 1   
    31    18    19 1   
    32    18    35 1   
    33    18    36 1   
    34    19    20 1   
    35    19    21 1   
    36    20    37 1   
    37    20    38 1   
    38    20    39 1   
    39    21    40 1   
    40    21    41 1   
    41    21    42 1   
    42    22    23 2   
    43    22    43 1   
    44    23    24 1   
    45    23    44 1   
    46    24    25 1   
    47    26    27 1   
    48    27    45 1   
    49    27    46 1   
@<TRIPOS>SUBSTRUCTURE
     1 1TR         1 TEMP              0 ****  ****    0 ROOT
