@<TRIPOS>MOLECULE
1TR
   46    49     1     0     0
SMALL
abcg2


@<TRIPOS>ATOM
      1 C4          -0.9430    -1.6290    -0.0120 ca         1 1TR       0.259800
      2 C5          -0.6620    -2.8050    -0.7040 ca         1 1TR      -0.296000
      3 C6          -1.4720    -3.8900    -0.4100 ca         1 1TR       0.154900
      4 N1          -2.4700    -3.8410     0.4530 nb         1 1TR      -0.247000
      5 N3          -1.9360    -1.5580     0.8670 nb         1 1TR      -0.239000
      6 CAV         -2.2380     2.6920     0.1410 ca         1 1TR      -0.052500
      7 CAW         -3.5170     3.2280     0.1260 ca         1 1TR      -0.161000
      8 CAX         -4.5320     2.4940    -0.4550 ca         1 1TR       0.173000
      9 FAY         -5.7750     3.0010    -0.4730 f          1 1TR      -0.182000
     10 CAZ         -4.3080     1.2550    -1.0260 ca         1 1TR      -0.161000
     11 CBA         -3.0250     0.7340    -0.9990 ca         1 1TR      -0.052500
     12 CAU         -1.9760     1.4370    -0.4070 ca         1 1TR      -0.029800
     13 CAI         -0.6080     0.9120    -0.3810 cc         1 1TR       0.176400
     14 NAH          0.4450     1.7440    -0.5460 nc         1 1TR      -0.297600
     15 CAG          1.5230     0.9830    -0.5040 cd         1 1TR      -0.062000
     16 CAF          2.8830     1.3400    -0.6010 cd         1 1TR      -0.081000
     17 CAE          3.8470     0.3810    -0.4890 cc         1 1TR      -0.066300
     18 CAD          5.3080     0.7080    -0.6060 c3         1 1TR       0.210100
     19 NAB          6.0580     0.2390     0.5420 n3         1 1TR      -0.715600
     20 CAC          7.4830     0.2940     0.2970 c3         1 1TR       0.147600
     21 CAA          5.7060     0.9650     1.7440 c3         1 1TR       0.147600
     22 CAM          3.4520    -0.9650    -0.2560 cc         1 1TR      -0.121000
     23 CAL          2.1440    -1.3070    -0.1760 cd         1 1TR      -0.117000
     24 NAK          1.1870    -0.3430    -0.3220 na         1 1TR       0.147100
     25 CAJ         -0.1890    -0.4000    -0.2350 cd         1 1TR      -0.259900
     26 C2          -2.6720    -2.6570     1.0500 ca         1 1TR       0.386900
     27 NAQ         -3.7120    -2.5650     1.8960 nv         1 1TR      -1.065900
     28 H1           0.1100    -2.8720    -1.4560 ha         1 1TR       0.136000
     29 H2          -1.3090    -4.8410    -0.9070 h4         1 1TR       0.021100
     30 H3          -1.4350     3.2560     0.5960 ha         1 1TR       0.124000
     31 H4          -3.7180     4.1980     0.5610 ha         1 1TR       0.130500
     32 H5          -5.1190     0.7090    -1.4900 ha         1 1TR       0.130500
     33 H6          -2.8450    -0.2240    -1.4670 ha         1 1TR       0.124000
     34 H7           3.1290     2.3820    -0.7540 ha         1 1TR       0.143000
     35 H8           5.7030     0.2060    -1.4960 h1         1 1TR       0.043700
     36 H9           5.4310     1.7900    -0.7760 h1         1 1TR       0.043700
     37 H11          7.8560     1.3150     0.1220 h1         1 1TR       0.033533
     38 H12          8.0230    -0.1140     1.1520 h1         1 1TR       0.033533
     39 H13          7.7370    -0.3090    -0.5770 h1         1 1TR       0.033533
     40 H14          4.6400     0.8720     1.9510 h1         1 1TR       0.033533
     41 H15          6.2450     0.5530     2.5980 h1         1 1TR       0.033533
     42 H16          5.9420     2.0390     1.6810 h1         1 1TR       0.033533
     43 H17          4.2000    -1.7360    -0.1360 ha         1 1TR       0.145000
     44 H18          1.8100    -2.3160     0.0110 h4         1 1TR       0.152000
     45 H19         -4.2010    -3.3980     2.1720 hn         1 1TR       0.503000
     46 H20         -3.8170    -1.7440     2.4650 hn         1 1TR       0.503000
@<TRIPOS>BOND
     1     1     2 ar  
     2     1     5 ar  
     3     1    25 1   
     4     2     3 ar  
     5     2    28 1   
     6     3     4 ar  
     7     3    29 1   
     8     4    26 ar  
     9     5    26 ar  
    10     6     7 ar  
    11     6    12 ar  
    12     6    30 1   
    13     7     8 ar  
    14     7    31 1   
    15     8     9 1   
    16     8    10 ar  
    17    10    11 ar  
    18    10    32 1   
    19    11    12 ar  
    20    11    33 1   
    21    12    13 1   
    22    13    14 1   
    23    13    25 2   
    24    14    15 2   
    25    15    16 1   
    26    15    24 1   
    27    16    17 2   
    28    16    34 1   
    29    17    18 1   
    30    17    22 1   
    31    18    19 1   
    32    18    35 1   
    33    18    36 1   
    34    19    20 1   
    35    19    21 1   
    36    20    37 1   
    37    20    38 1   
    38    20    39 1   
    39    21    40 1   
    40    21    41 1   
    41    21    42 1   
    42    22    23 2   
    43    22    43 1   
    44    23    24 1   
    45    23    44 1   
    46    24    25 1   
    47    26    27 1   
    48    27    45 1   
    49    27    46 1   
@<TRIPOS>SUBSTRUCTURE
     1 1TR         1 TEMP              0 ****  ****    0 ROOT
