@<TRIPOS>MOLECULE
1TS
   81    84     1     0     0
SMALL
bcc


@<TRIPOS>ATOM
      1 S8          -1.1720     3.3140    -0.9090 sy         1 1TS       1.297200
      2 CL           2.4610     2.3520     2.9700 cl         1 1TS      -0.092400
      3 C35          0.5040     3.0640    -0.4180 ca         1 1TS      -0.344500
      4 C10          5.2840     1.6060    -0.1330 c3         1 1TS       0.118700
      5 O9           4.2340     1.8480     0.7920 os         1 1TS      -0.304900
      6 C5           3.0600     2.2820     0.3400 ca         1 1TS       0.198100
      7 O1          -1.1890     3.9710    -2.2040 o          1 1TS      -0.598300
      8 O10         -1.8850     3.8860     0.2200 o          1 1TS      -0.598300
      9 C7           1.4750     2.8560    -1.3830 ca         1 1TS       0.031000
     10 C3           0.8000     2.9250     0.9320 ca         1 1TS       0.004000
     11 C6           2.7500     2.4770    -1.0060 ca         1 1TS      -0.227000
     12 C4           2.0730     2.5440     1.2990 ca         1 1TS      -0.047600
     13 C13         -0.4900     0.1720     0.1140 c          1 1TS       0.638100
     14 N11         -1.8120     1.8090    -1.1720 n7         1 1TS      -0.787100
     15 O14          0.2810     0.0580    -0.8260 o          1 1TS      -0.613100
     16 C15         -6.4880     0.3150    -1.5230 c3         1 1TS       0.144300
     17 C31         -7.4150    -0.6660    -0.8480 ca         1 1TS      -0.094300
     18 C32         -7.5060    -0.7120     0.5440 ca         1 1TS      -0.119000
     19 C33         -8.3350    -1.6250     1.1670 ca         1 1TS      -0.093000
     20 C44         -9.0910    -2.5070     0.3930 ca         1 1TS      -0.014000
     21 C8          -9.0140    -2.4700    -0.9970 ca         1 1TS      -0.093000
     22 C9          -8.1750    -1.5510    -1.6050 ca         1 1TS      -0.119000
     23 C40         -9.9510    -3.4500     1.0320 cg         1 1TS       0.232800
     24 N63        -10.6460    -4.2110     1.5490 n1         1 1TS      -0.361800
     25 C45         -1.8500     0.8500    -0.0820 c3         1 1TS       0.144500
     26 C12         -2.9000    -0.2080    -0.4090 c3         1 1TS      -0.156400
     27 C46         -4.2930     0.3900    -0.4120 c          1 1TS       0.680100
     28 O22         -4.6430     1.1960     0.4360 o          1 1TS      -0.597100
     29 N14         -5.0960    -0.0570    -1.3900 ns         1 1TS      -0.567900
     30 N15         -0.2120    -0.3060     1.3340 n          1 1TS      -0.456800
     31 C16          1.0760    -0.9260     1.6010 c5         1 1TS       0.022700
     32 C17          1.4720    -1.9430     0.5400 c          1 1TS       0.679100
     33 O18          0.7250    -2.8430     0.1940 o          1 1TS      -0.597100
     34 C34          0.8760    -1.5620     2.9760 c5         1 1TS      -0.082400
     35 C1          -0.0880    -0.5980     3.6550 c5         1 1TS      -0.095400
     36 C2          -1.0430    -0.2070     2.5340 c5         1 1TS       0.103000
     37 N19          2.7310    -1.8040     0.1010 ns         1 1TS      -0.561900
     38 C20          3.3250    -2.6530    -0.9090 c3         1 1TS       0.148300
     39 C21          4.8230    -2.5290    -0.8580 ca         1 1TS      -0.099300
     40 C26          5.5260    -2.9660     0.2610 ca         1 1TS      -0.127000
     41 C25          6.9040    -2.8420     0.3230 ca         1 1TS      -0.101500
     42 C24          7.6140    -2.2690    -0.7330 ca         1 1TS      -0.138900
     43 C27          9.0950    -2.1200    -0.6920 ce         1 1TS       0.656800
     44 N29          9.6360    -1.1910    -1.3830 n2         1 1TS      -0.828100
     45 N28          9.7460    -2.9850     0.1420 nv         1 1TS      -0.962800
     46 C23          6.9090    -1.8180    -1.8440 ca         1 1TS      -0.101500
     47 C22          5.5300    -1.9520    -1.9060 ca         1 1TS      -0.127000
     48 H110         5.5580     2.5130    -0.6760 h1         1 1TS       0.053367
     49 H210         6.1350     1.2730     0.4550 h1         1 1TS       0.053367
     50 H310         5.0220     0.8250    -0.8510 h1         1 1TS       0.053367
     51 H7           1.2520     2.9720    -2.4350 ha         1 1TS       0.156000
     52 H3           0.0550     3.1100     1.6950 ha         1 1TS       0.169000
     53 H6           3.4930     2.3180    -1.7750 ha         1 1TS       0.146000
     54 HN11        -1.4730     1.4110    -2.0440 hn         1 1TS       0.434800
     55 H115        -6.6270     1.3130    -1.1090 h1         1 1TS       0.069700
     56 H215        -6.7210     0.3720    -2.5860 h1         1 1TS       0.069700
     57 H32         -6.9270    -0.0250     1.1460 ha         1 1TS       0.145500
     58 H33         -8.3990    -1.6640     2.2440 ha         1 1TS       0.145000
     59 H8          -9.6010    -3.1530    -1.5950 ha         1 1TS       0.145000
     60 H9          -8.1150    -1.5230    -2.6860 ha         1 1TS       0.145500
     61 H45         -2.1700     1.3770     0.8180 h1         1 1TS       0.114700
     62 H112        -2.6590    -0.6890    -1.3590 hc         1 1TS       0.074700
     63 H212        -2.8880    -0.9990     0.3490 hc         1 1TS       0.074700
     64 HN14        -4.7390    -0.7470    -2.0310 hn         1 1TS       0.315500
     65 H16          1.8420    -0.1470     1.6710 h1         1 1TS       0.065700
     66 H134         1.8190    -1.6760     3.5090 hc         1 1TS       0.067700
     67 H234         0.4190    -2.5470     2.8710 hc         1 1TS       0.067700
     68 H11          0.4470     0.2820     4.0150 hc         1 1TS       0.062200
     69 H21         -0.6120    -1.0430     4.5000 hc         1 1TS       0.062200
     70 H12         -1.8880    -0.8980     2.4790 h1         1 1TS       0.057200
     71 H22         -1.4360     0.8000     2.6700 h1         1 1TS       0.057200
     72 HN19         3.2380    -0.9740     0.3620 hn         1 1TS       0.318500
     73 H120         3.0220    -3.6840    -0.7220 h1         1 1TS       0.062700
     74 H220         2.9590    -2.3860    -1.9050 h1         1 1TS       0.062700
     75 H26          4.9950    -3.4080     1.0950 ha         1 1TS       0.138500
     76 H25          7.4180    -3.1840     1.2120 ha         1 1TS       0.148000
     77 H129        10.6490    -1.2130    -1.2970 hn         1 1TS       0.374400
     78 H128         9.3340    -3.8890     0.3050 hn         1 1TS       0.406800
     79 H228        10.7520    -3.0090     0.0840 hn         1 1TS       0.406800
     80 H23          7.4450    -1.3660    -2.6670 ha         1 1TS       0.148000
     81 H22A         4.9990    -1.5990    -2.7820 ha         1 1TS       0.138500
@<TRIPOS>BOND
     1     1     3 1   
     2     1     7 2   
     3     1     8 2   
     4     1    14 1   
     5     2    12 1   
     6     3     9 ar  
     7     3    10 ar  
     8     4     5 1   
     9     4    48 1   
    10     4    49 1   
    11     4    50 1   
    12     5     6 1   
    13     6    11 ar  
    14     6    12 ar  
    15     9    11 ar  
    16     9    51 1   
    17    10    12 ar  
    18    10    52 1   
    19    11    53 1   
    20    13    15 2   
    21    13    25 1   
    22    13    30 1   
    23    14    25 1   
    24    14    54 1   
    25    16    17 1   
    26    16    29 1   
    27    16    55 1   
    28    16    56 1   
    29    17    18 ar  
    30    17    22 ar  
    31    18    19 ar  
    32    18    57 1   
    33    19    20 ar  
    34    19    58 1   
    35    20    21 ar  
    36    20    23 1   
    37    21    22 ar  
    38    21    59 1   
    39    22    60 1   
    40    23    24 3   
    41    25    26 1   
    42    25    61 1   
    43    26    27 1   
    44    26    62 1   
    45    26    63 1   
    46    27    28 2   
    47    27    29 1   
    48    29    64 1   
    49    30    31 1   
    50    30    36 1   
    51    31    32 1   
    52    31    34 1   
    53    31    65 1   
    54    32    33 2   
    55    32    37 1   
    56    34    35 1   
    57    34    66 1   
    58    34    67 1   
    59    35    36 1   
    60    35    68 1   
    61    35    69 1   
    62    36    70 1   
    63    36    71 1   
    64    37    38 1   
    65    37    72 1   
    66    38    39 1   
    67    38    73 1   
    68    38    74 1   
    69    39    40 ar  
    70    39    47 ar  
    71    40    41 ar  
    72    40    75 1   
    73    41    42 ar  
    74    41    76 1   
    75    42    43 1   
    76    42    46 ar  
    77    43    44 2   
    78    43    45 1   
    79    44    77 1   
    80    45    78 1   
    81    45    79 1   
    82    46    47 ar  
    83    46    80 1   
    84    47    81 1   
@<TRIPOS>SUBSTRUCTURE
     1 1TS         1 TEMP              0 ****  ****    0 ROOT
