@<TRIPOS>MOLECULE
1TS
   81    84     1     0     0
SMALL
No Charge or Current Charge


@<TRIPOS>ATOM
      1 S8          -0.6770     2.6030    -1.2550 sy         1 1TS       1.155600
      2 Cl           2.3370     2.6520     3.3540 cl         1 1TS      -0.184000
      3 C35          0.8780     2.3120    -0.4140 ca         1 1TS      -0.344500
      4 C10          5.6290     0.9220     0.9760 c3         1 1TS       0.141900
      5 O9           4.4770     1.5060     1.6090 os         1 1TS      -0.328100
      6 C5           3.3090     1.7780     0.9180 ca         1 1TS       0.198100
      7 O1          -0.4300     2.8780    -2.6710 o          1 1TS      -0.527500
      8 O10         -1.5460     3.4570    -0.4420 o          1 1TS      -0.527500
      9 C7           1.9770     1.8010    -1.1300 ca         1 1TS       0.049000
     10 C3           1.0040     2.5840     0.9650 ca         1 1TS       0.022000
     11 C6           3.1860     1.5300    -0.4660 ca         1 1TS      -0.209000
     12 C4           2.2140     2.3160     1.6260 ca         1 1TS       0.044000
     13 C13         -0.2640    -0.3980     0.5260 c          1 1TS       0.571100
     14 N11         -1.3860     1.0880    -1.2370 n7         1 1TS      -0.842300
     15 O14          0.5420    -0.7950    -0.3080 o          1 1TS      -0.613100
     16 C15         -6.0230     0.9400    -1.4030 c3         1 1TS       0.144300
     17 C31         -7.1690    -0.0560    -1.3030 ca         1 1TS      -0.094300
     18 C32         -7.7690    -0.3250    -0.0580 ca         1 1TS      -0.101000
     19 C33         -8.8250    -1.2490     0.0380 ca         1 1TS      -0.075000
     20 C44         -9.2890    -1.9140    -1.1140 ca         1 1TS      -0.014000
     21 C8          -8.6890    -1.6480    -2.3600 ca         1 1TS      -0.075000
     22 C9          -7.6330    -0.7240    -2.4530 ca         1 1TS      -0.101000
     23 C40        -10.3680    -2.8590    -1.0170 cg         1 1TS       0.322000
     24 N63        -11.2500    -3.6210    -0.9460 n1         1 1TS      -0.451000
     25 C45         -1.5530     0.3730     0.0660 c3         1 1TS       0.144500
     26 C12         -2.7510    -0.5930    -0.0650 c3         1 1TS      -0.156400
     27 C46         -4.0690     0.1710    -0.0180 c          1 1TS       0.613100
     28 O22         -4.5240     0.6190     1.0250 o          1 1TS      -0.597100
     29 N14         -4.7280     0.2830    -1.2200 ns         1 1TS      -0.500900
     30 N15         -0.0270    -0.5980     1.9090 n          1 1TS      -0.389800
     31 C16          1.2330    -1.2050     2.4300 c5         1 1TS       0.022700
     32 C17          1.7010    -2.5290     1.7450 c          1 1TS       0.612100
     33 O18          1.0020    -3.4440     1.3240 o          1 1TS      -0.597100
     34 C34          0.8340    -1.5230     3.9010 c5         1 1TS      -0.082400
     35 C1          -0.0900    -0.3330     4.2480 c5         1 1TS      -0.095400
     36 C2          -0.9800    -0.2330     2.9850 c5         1 1TS       0.103000
     37 N19          3.0780    -2.5340     1.6820 ns         1 1TS      -0.494900
     38 C20          3.8780    -3.5250     0.9670 c3         1 1TS       0.148300
     39 C21          4.8250    -2.8330    -0.0020 ca         1 1TS      -0.099300
     40 C26          6.2130    -2.8400     0.2220 ca         1 1TS      -0.109000
     41 C25          7.0810    -2.1770    -0.6630 ca         1 1TS      -0.083500
     42 C24          6.5780    -1.5010    -1.8010 ca         1 1TS      -0.138900
     43 C27          7.4880    -0.7530    -2.7320 ce         1 1TS       0.656800
     44 N29          7.0840     0.1540    -3.5220 n2         1 1TS      -0.828100
     45 N28          8.7830    -1.1320    -2.8000 nv         1 1TS      -1.073200
     46 C23          5.1790    -1.4830    -2.0040 ca         1 1TS      -0.083500
     47 C22          4.3130    -2.1470    -1.1180 ca         1 1TS      -0.109000
     48 H110         6.0030     1.5680     0.1710 h1         1 1TS       0.053367
     49 H210         6.4370     0.7860     1.7050 h1         1 1TS       0.053367
     50 H310         5.3840    -0.0590     0.5550 h1         1 1TS       0.053367
     51 H7           1.8980     1.5920    -2.1970 ha         1 1TS       0.138000
     52 H3           0.1690     2.9910     1.5330 ha         1 1TS       0.151000
     53 H6           4.0100     1.1230    -1.0430 ha         1 1TS       0.128000
     54 HN11        -0.7090     0.5580    -1.7900 hn         1 1TS       0.490000
     55 H115        -6.1470     1.7310    -0.6520 h1         1 1TS       0.069700
     56 H215        -6.0360     1.4200    -2.3900 h1         1 1TS       0.069700
     57 H32         -7.4150     0.1810     0.8390 ha         1 1TS       0.127500
     58 H33         -9.2790    -1.4470     1.0070 ha         1 1TS       0.127000
     59 H8          -9.0380    -2.1570    -3.2560 ha         1 1TS       0.127000
     60 H9          -7.1750    -0.5280    -3.4200 ha         1 1TS       0.127500
     61 H45         -1.7980     1.0970     0.8540 h1         1 1TS       0.114700
     62 H112        -2.6580    -1.1550    -1.0020 hc         1 1TS       0.074700
     63 H212        -2.7370    -1.2880     0.7820 hc         1 1TS       0.074700
     64 HN14        -4.2640    -0.1070    -2.0310 hn         1 1TS       0.315500
     65 H16          2.0420    -0.4630     2.3910 h1         1 1TS       0.065700
     66 H134         1.7030    -1.5940     4.5650 hc         1 1TS       0.067700
     67 H234         0.2880    -2.4720     3.9760 hc         1 1TS       0.067700
     68 H11          0.4890     0.5860     4.3960 hc         1 1TS       0.062200
     69 H21         -0.6750    -0.4990     5.1600 hc         1 1TS       0.062200
     70 H12         -1.8130    -0.9490     3.0250 h1         1 1TS       0.057200
     71 H22         -1.3900     0.7790     2.8790 h1         1 1TS       0.057200
     72 HN19         3.5570    -1.7300     2.0670 hn         1 1TS       0.318500
     73 H120         4.4440    -4.1180     1.6970 h1         1 1TS       0.062700
     74 H220         3.2250    -4.2100     0.4080 h1         1 1TS       0.062700
     75 H26          6.6240    -3.3510     1.0910 ha         1 1TS       0.120500
     76 H25          8.1470    -2.1810    -0.4460 ha         1 1TS       0.130000
     77 H129         7.9080     0.6410    -3.8910 hn         1 1TS       0.374400
     78 H128         8.9820    -2.0380    -2.3920 hn         1 1TS       0.462000
     79 H228         9.2590    -0.9430    -3.6740 hn         1 1TS       0.462000
     80 H23          4.7550    -0.9560    -2.8560 ha         1 1TS       0.130000
     81 H22A         3.2400    -2.1190    -1.2940 ha         1 1TS       0.120500
@<TRIPOS>BOND
     1     1     3 1   
     2     1     7 2   
     3     1     8 2   
     4     1    14 1   
     5     2    12 1   
     6     3     9 ar  
     7     3    10 ar  
     8     4     5 1   
     9     4    48 1   
    10     4    49 1   
    11     4    50 1   
    12     5     6 1   
    13     6    11 ar  
    14     6    12 ar  
    15     9    11 ar  
    16     9    51 1   
    17    10    12 ar  
    18    10    52 1   
    19    11    53 1   
    20    13    15 2   
    21    13    25 1   
    22    13    30 1   
    23    14    25 1   
    24    14    54 1   
    25    16    17 1   
    26    16    29 1   
    27    16    55 1   
    28    16    56 1   
    29    17    18 ar  
    30    17    22 ar  
    31    18    19 ar  
    32    18    57 1   
    33    19    20 ar  
    34    19    58 1   
    35    20    21 ar  
    36    20    23 1   
    37    21    22 ar  
    38    21    59 1   
    39    22    60 1   
    40    23    24 3   
    41    25    26 1   
    42    25    61 1   
    43    26    27 1   
    44    26    62 1   
    45    26    63 1   
    46    27    28 2   
    47    27    29 1   
    48    29    64 1   
    49    30    31 1   
    50    30    36 1   
    51    31    32 1   
    52    31    34 1   
    53    31    65 1   
    54    32    33 2   
    55    32    37 1   
    56    34    35 1   
    57    34    66 1   
    58    34    67 1   
    59    35    36 1   
    60    35    68 1   
    61    35    69 1   
    62    36    70 1   
    63    36    71 1   
    64    37    38 1   
    65    37    72 1   
    66    38    39 1   
    67    38    73 1   
    68    38    74 1   
    69    39    40 ar  
    70    39    47 ar  
    71    40    41 ar  
    72    40    75 1   
    73    41    42 ar  
    74    41    76 1   
    75    42    43 1   
    76    42    46 ar  
    77    43    44 2   
    78    43    45 1   
    79    44    77 1   
    80    45    78 1   
    81    45    79 1   
    82    46    47 ar  
    83    46    80 1   
    84    47    81 1   
@<TRIPOS>SUBSTRUCTURE
     1 1TS         1 TEMP              0 ****  ****    0 ROOT
