@<TRIPOS>MOLECULE
1TT
   53    56     1     0     0
SMALL
bcc


@<TRIPOS>ATOM
      1 C1          -2.5100     2.0930    -1.5310 c          1 1TT       0.702500
      2 C2          -3.2220     0.7750    -1.7160 c6         1 1TT      -0.259700
      3 C3          -2.7400    -0.2040    -0.6750 c2         1 1TT       0.642200
      4 C8           1.1830     1.5770     0.1530 c6         1 1TT       0.168500
      5 C9           0.9730     2.9290    -0.5120 c6         1 1TT      -0.088400
      6 C10         -0.4760     3.1840    -0.8840 c6         1 1TT       0.116000
      7 C13          0.6480     1.5000     1.5810 c3         1 1TT       0.629900
      8 C20         -4.3020    -3.0610     1.1370 c6         1 1TT       0.120400
      9 C21         -3.1360    -2.1960     0.6580 c6         1 1TT       0.177500
     10 C24          3.5370    -1.2970     0.2080 ca         1 1TT      -0.077000
     11 C30         -2.2500    -3.1010    -0.1900 c3         1 1TT      -0.093100
     12 N4          -1.5010    -0.2590    -0.4070 n2         1 1TT      -0.712900
     13 N5          -1.1960     1.9690    -1.2540 n          1 1TT      -0.496800
     14 C6          -0.6620     0.6080    -1.2020 c6         1 1TT       0.591100
     15 N7           0.7030     0.5800    -0.7610 n3         1 1TT      -0.784600
     16 N11         -3.6630    -1.0540    -0.0990 nh         1 1TT      -0.708600
     17 O12         -3.0790     3.1710    -1.6060 o          1 1TT      -0.619500
     18 F14         -0.6700     1.6980     1.6830 f          1 1TT      -0.236967
     19 F15          0.9060     0.3090     2.1420 f          1 1TT      -0.236967
     20 F16          1.2370     2.4250     2.3580 f          1 1TT      -0.236967
     21 C17         -4.7760    -0.3760     0.5710 c6         1 1TT       0.156800
     22 C18         -5.8410    -1.3610     0.9900 c6         1 1TT       0.124400
     23 O19         -5.2990    -2.3530     1.8270 os         1 1TT      -0.390600
     24 C23          2.7480    -0.7540    -0.7940 ca         1 1TT      -0.214600
     25 C25          4.9130    -1.2730     0.0500 ca         1 1TT      -0.099900
     26 C26          5.4630    -0.7070    -1.0890 ca         1 1TT       0.417200
     27 N27          4.7080    -0.1810    -2.0450 nb         1 1TT      -0.660000
     28 C28          3.3920    -0.2030    -1.8990 ca         1 1TT       0.418200
     29 CL1          5.9450    -1.9350     1.2640 cl         1 1TT      -0.086400
     30 H1          -4.2960     0.9330    -1.7470 hc         1 1TT       0.092700
     31 H2          -2.9360     0.3540    -2.6890 hc         1 1TT       0.092700
     32 H3           2.2640     1.4360     0.2560 h1         1 1TT       0.091700
     33 H4           1.3300     3.7540     0.1040 hc         1 1TT       0.070700
     34 H5           1.5960     2.9150    -1.4060 hc         1 1TT       0.070700
     35 H6          -0.9990     3.6530    -0.0490 h1         1 1TT       0.061700
     36 H7          -0.5140     3.8930    -1.7120 h1         1 1TT       0.061700
     37 H8          -4.7380    -3.5750     0.2660 h1         1 1TT       0.053200
     38 H9          -3.9130    -3.8240     1.8120 h1         1 1TT       0.053200
     39 H10         -2.5710    -1.8400     1.5310 h1         1 1TT       0.063700
     40 H11          0.9300    -1.3270     0.1800 h1         1 1TT       0.059700
     41 H12          0.8530    -1.3090    -1.5630 h1         1 1TT       0.059700
     42 H14         -1.2950    -2.6440    -0.4220 hc         1 1TT       0.044367
     43 H15         -2.0540    -4.0300     0.3470 hc         1 1TT       0.044367
     44 H16         -2.7500    -3.3560    -1.1260 hc         1 1TT       0.044367
     45 H17         -0.6530     0.2100    -2.2300 h3         1 1TT       0.063700
     46 H19         -4.4170     0.1640     1.4580 h1         1 1TT       0.055700
     47 H20         -5.2300     0.3570    -0.0930 h1         1 1TT       0.055700
     48 H21         -6.6190    -0.8380     1.5480 h1         1 1TT       0.056200
     49 H22         -6.3050    -1.8130     0.1010 h1         1 1TT       0.056200
     50 H23          6.5370    -0.6800    -1.2290 h4         1 1TT       0.036100
     51 H24          2.8080     0.2390    -2.6990 h4         1 1TT       0.031100
     52 C22          1.2470    -0.7620    -0.7020 c3         1 1TT       0.264100
     53 H13          3.0870    -1.7310     1.0910 ha         1 1TT       0.159000
@<TRIPOS>BOND
     1     1     2 1   
     2     1    13 1   
     3     1    17 2   
     4     2     3 1   
     5     2    30 1   
     6     2    31 1   
     7     3    12 2   
     8     3    16 1   
     9     4     5 1   
    10     4     7 1   
    11     4    15 1   
    12     4    32 1   
    13     5     6 1   
    14     5    33 1   
    15     5    34 1   
    16     6    13 1   
    17     6    35 1   
    18     6    36 1   
    19     7    18 1   
    20     7    19 1   
    21     7    20 1   
    22     8     9 1   
    23     8    23 1   
    24     8    37 1   
    25     8    38 1   
    26     9    11 1   
    27     9    16 1   
    28     9    39 1   
    29    10    24 ar  
    30    10    25 ar  
    31    10    53 1   
    32    11    42 1   
    33    11    43 1   
    34    11    44 1   
    35    12    14 1   
    36    13    14 1   
    37    14    15 1   
    38    14    45 1   
    39    15    52 1   
    40    16    21 1   
    41    21    22 1   
    42    21    46 1   
    43    21    47 1   
    44    22    23 1   
    45    22    48 1   
    46    22    49 1   
    47    24    28 ar  
    48    24    52 1   
    49    25    26 ar  
    50    25    29 1   
    51    26    27 ar  
    52    26    50 1   
    53    27    28 ar  
    54    28    51 1   
    55    40    52 1   
    56    41    52 1   
@<TRIPOS>SUBSTRUCTURE
     1 1TT         1 TEMP              0 ****  ****    0 ROOT
