@<TRIPOS>MOLECULE
1TT
   53    56     1     0     0
SMALL
No Charge or Current Charge


@<TRIPOS>ATOM
      1 C1          -2.7000     2.0380    -1.6070 c          1 1TT       0.560000
      2 C2          -3.3060     0.7080    -1.9830 c6         1 1TT      -0.259700
      3 C3          -2.7180    -0.2580    -0.9940 c2         1 1TT       0.642200
      4 C8           1.1280     1.5850     0.0980 c6         1 1TT       0.168500
      5 C9           0.8610     2.9900    -0.4790 c6         1 1TT      -0.088400
      6 C10         -0.6260     3.1990    -0.8150 c6         1 1TT       0.116000
      7 C13          0.5370     1.3550     1.5520 c3         1 1TT       0.266000
      8 C20         -4.1460    -3.0290     1.3060 c6         1 1TT       0.143600
      9 C21         -3.0570    -2.2720     0.4780 c6         1 1TT       0.177500
     10 C24          3.4680    -1.2460     0.3600 ca         1 1TT      -0.059000
     11 C30         -2.4930    -3.2530    -0.5930 c3         1 1TT      -0.093100
     12 N4          -1.4630    -0.2360    -0.7310 n2         1 1TT      -0.712900
     13 N5          -1.3160     2.0230    -1.4130 n          1 1TT      -0.429800
     14 C6          -0.6360     0.7100    -1.4730 c6         1 1TT       0.591100
     15 N7           0.7550     0.6260    -0.9890 n3         1 1TT      -0.784600
     16 N11         -3.5570    -0.9980    -0.1700 nh         1 1TT      -0.708600
     17 O12         -3.3920     3.0050    -1.3220 o          1 1TT      -0.544000
     18 F14         -0.8100     1.4560     1.6220 f          1 1TT      -0.115667
     19 F15          0.8680     0.1400     2.0460 f          1 1TT      -0.115667
     20 F16          1.0360     2.2670     2.4190 f          1 1TT      -0.115667
     21 C17         -4.5600    -0.2350     0.6560 c6         1 1TT       0.156800
     22 C18         -5.5660    -1.1220     1.4360 c6         1 1TT       0.147600
     23 O19         -4.8680    -2.1390     2.1770 os         1 1TT      -0.437000
     24 C23          2.8090    -0.7820    -0.7960 ca         1 1TT      -0.149300
     25 C25          4.8710    -1.2390     0.3750 ca         1 1TT       0.057000
     26 C26          5.5630    -0.7740    -0.7620 ca         1 1TT       0.351900
     27 N27          4.9370    -0.3270    -1.8810 nb         1 1TT      -0.660000
     28 C28          3.5810    -0.3340    -1.8860 ca         1 1TT       0.352900
     29 Cl1          5.7450    -1.8040     1.7970 cl         1 1TT      -0.178000
     30 H1          -4.4000     0.7410    -1.9930 hc         1 1TT       0.092700
     31 H2          -2.9230     0.4040    -2.9640 hc         1 1TT       0.092700
     32 H3           2.2180     1.5360     0.2410 h1         1 1TT       0.091700
     33 H4           1.2050     3.7710     0.2120 hc         1 1TT       0.070700
     34 H5           1.4530     3.1140    -1.3960 hc         1 1TT       0.070700
     35 H6          -1.1560     3.4750     0.1070 h1         1 1TT       0.061700
     36 H7          -0.7210     4.0560    -1.4970 h1         1 1TT       0.061700
     37 H8          -4.8600    -3.5170     0.6270 h1         1 1TT       0.053200
     38 H9          -3.6720    -3.8130     1.9130 h1         1 1TT       0.053200
     39 H10         -2.2340    -2.0250     1.1660 h1         1 1TT       0.063700
     40 H11          0.8680    -1.2760    -0.0150 h1         1 1TT       0.059700
     41 H12          1.0000    -1.3350    -1.7680 h1         1 1TT       0.059700
     42 H14         -1.6190    -2.8490    -1.1140 hc         1 1TT       0.044367
     43 H15         -2.1760    -4.1960    -0.1310 hc         1 1TT       0.044367
     44 H16         -3.2510    -3.4930    -1.3490 hc         1 1TT       0.044367
     45 H17         -0.6500     0.3770    -2.5210 h3         1 1TT       0.063700
     46 H19         -4.0240     0.3990     1.3770 h1         1 1TT       0.055700
     47 H20         -5.1490     0.4440     0.0250 h1         1 1TT       0.055700
     48 H21         -6.1470    -0.5020     2.1320 h1         1 1TT       0.056200
     49 H22         -6.2680    -1.5980     0.7360 h1         1 1TT       0.056200
     50 H23          6.6520    -0.7580    -0.7780 h4         1 1TT       0.036100
     51 H24          3.1010     0.0310    -2.7930 h4         1 1TT       0.031100
     52 C22          1.2930    -0.7540    -0.8830 c3         1 1TT       0.264100
     53 H13          2.9100    -1.6000     1.2240 ha         1 1TT       0.141000
@<TRIPOS>BOND
     1     1     2 1   
     2     1    13 1   
     3     1    17 2   
     4     2     3 1   
     5     2    30 1   
     6     2    31 1   
     7     3    12 2   
     8     3    16 1   
     9     4     5 1   
    10     4     7 1   
    11     4    15 1   
    12     4    32 1   
    13     5     6 1   
    14     5    33 1   
    15     5    34 1   
    16     6    13 1   
    17     6    35 1   
    18     6    36 1   
    19     7    18 1   
    20     7    19 1   
    21     7    20 1   
    22     8     9 1   
    23     8    23 1   
    24     8    37 1   
    25     8    38 1   
    26     9    11 1   
    27     9    16 1   
    28     9    39 1   
    29    10    24 ar  
    30    10    25 ar  
    31    10    53 1   
    32    11    42 1   
    33    11    43 1   
    34    11    44 1   
    35    12    14 1   
    36    13    14 1   
    37    14    15 1   
    38    14    45 1   
    39    15    52 1   
    40    16    21 1   
    41    21    22 1   
    42    21    46 1   
    43    21    47 1   
    44    22    23 1   
    45    22    48 1   
    46    22    49 1   
    47    24    28 ar  
    48    24    52 1   
    49    25    26 ar  
    50    25    29 1   
    51    26    27 ar  
    52    26    50 1   
    53    27    28 ar  
    54    28    51 1   
    55    40    52 1   
    56    41    52 1   
@<TRIPOS>SUBSTRUCTURE
     1 1TT         1 TEMP              0 ****  ****    0 ROOT
