@<TRIPOS>MOLECULE
1TU
   30    31     1     0     0
SMALL
No Charge or Current Charge


@<TRIPOS>ATOM
      1 C1           1.4590     1.1190     0.7010 ca         1 1TU      -0.117000
      2 C2           0.8530    -0.1190     0.9910 ca         1 1TU      -0.057300
      3 C3           1.4490    -1.3050     0.5210 ca         1 1TU      -0.117000
      4 C4           2.6380    -1.2560    -0.2270 ca         1 1TU       0.125000
      5 C5           3.2510    -0.0180    -0.5170 ca         1 1TU       0.063100
      6 C6           2.6480     1.1680    -0.0460 ca         1 1TU       0.125000
      7 C10         -0.4400    -0.1760     1.7930 c3         1 1TU      -0.038400
      8 C11         -1.6640    -0.1980     0.9150 cc         1 1TU       0.241300
      9 C13         -3.3340    -1.0300    -0.1430 cd         1 1TU       0.422800
     10 C15         -2.2610     0.8590     0.2690 cd         1 1TU      -0.024900
     11 N14         -3.3390     0.3350    -0.4160 na         1 1TU      -0.186500
     12 C16         -4.2980     1.0690    -1.2640 c3         1 1TU       0.060900
     13 C17         -4.3220    -2.0340    -0.6700 c3         1 1TU      -0.123400
     14 N12         -2.3310    -1.3650     0.6570 nc         1 1TU      -0.664000
     15 F8           3.2130     2.3680    -0.3130 f          1 1TU      -0.175000
     16 O9           4.4150     0.0350    -1.2480 oh         1 1TU      -0.510100
     17 F7           3.1880    -2.4120    -0.6660 f          1 1TU      -0.175000
     18 H1           1.0080     2.0450     1.0490 ha         1 1TU       0.142000
     19 H2           0.9880    -2.2680     0.7300 ha         1 1TU       0.142000
     20 H3          -0.4370    -1.0570     2.4450 hc         1 1TU       0.059200
     21 H4          -0.5020     0.6860     2.4680 hc         1 1TU       0.059200
     22 H6          -3.7640     1.5490    -2.0940 h1         1 1TU       0.053700
     23 H7          -5.0490     0.3840    -1.6760 h1         1 1TU       0.053700
     24 H8          -4.8080     1.8350    -0.6670 h1         1 1TU       0.053700
     25 H9          -5.3400    -1.7820    -0.3520 hc         1 1TU       0.055700
     26 H10         -4.3040    -2.0590    -1.7660 hc         1 1TU       0.055700
     27 H11         -4.0980    -3.0440    -0.3080 hc         1 1TU       0.055700
     28 H12          4.6810     0.9770    -1.3440 ho         1 1TU       0.477000
     29 H5          -2.5660     2.6490    -0.3050 ho         1 1TU       0.460000
     30 O18         -1.9210     2.1710     0.2600 oh         1 1TU      -0.519100
@<TRIPOS>BOND
     1     1     2 ar  
     2     1     6 ar  
     3     1    18 1   
     4     2     3 ar  
     5     2     7 1   
     6     3     4 ar  
     7     3    19 1   
     8     4     5 ar  
     9     4    17 1   
    10     5     6 ar  
    11     5    16 1   
    12     6    15 1   
    13     7     8 1   
    14     7    20 1   
    15     7    21 1   
    16     8    10 2   
    17     8    14 1   
    18     9    11 1   
    19     9    13 1   
    20     9    14 2   
    21    10    11 1   
    22    10    30 1   
    23    11    12 1   
    24    12    22 1   
    25    12    23 1   
    26    12    24 1   
    27    13    25 1   
    28    13    26 1   
    29    13    27 1   
    30    16    28 1   
    31    29    30 1   
@<TRIPOS>SUBSTRUCTURE
     1 1TU         1 TEMP              0 ****  ****    0 ROOT
