@<TRIPOS>MOLECULE
1TU
   30    31     1     0     0
SMALL
abcg2


@<TRIPOS>ATOM
      1 C1           1.2270     0.9940     0.2590 ca         1 1TU      -0.117000
      2 C2           0.8210    -0.0990     1.0200 ca         1 1TU      -0.057300
      3 C3           1.6080    -1.2440     1.0200 ca         1 1TU      -0.117000
      4 C4           2.7690    -1.2820     0.2730 ca         1 1TU       0.125000
      5 C5           3.2020    -0.2100    -0.4950 ca         1 1TU       0.063100
      6 C6           2.3910     0.9200    -0.4710 ca         1 1TU       0.125000
      7 C10         -0.4690    -0.0390     1.7980 c3         1 1TU      -0.038400
      8 C11         -1.6630    -0.0950     0.9040 cc         1 1TU       0.241300
      9 C13         -3.1450    -0.9440    -0.4010 cd         1 1TU       0.422800
     10 C15         -2.4250     0.9410     0.4520 cd         1 1TU      -0.024900
     11 N14         -3.3740     0.3940    -0.3780 na         1 1TU      -0.186500
     12 C16         -4.3730     1.1180    -1.1280 c3         1 1TU       0.060900
     13 C17         -3.9600    -1.8940    -1.2020 c3         1 1TU      -0.123400
     14 N12         -2.1280    -1.2630     0.3600 nc         1 1TU      -0.664000
     15 F8           2.7880     1.9760    -1.2060 f          1 1TU      -0.175000
     16 O9           4.3430    -0.3180    -1.1960 oh         1 1TU      -0.510100
     17 F7           3.5260    -2.3880     0.2760 f          1 1TU      -0.175000
     18 H1           0.6370     1.9020     0.2320 ha         1 1TU       0.142000
     19 H2           1.3250    -2.1130     1.6010 ha         1 1TU       0.142000
     20 H3          -0.5050    -0.8670     2.5090 hc         1 1TU       0.059200
     21 H4          -0.4960     0.8790     2.3890 hc         1 1TU       0.059200
     22 H6          -4.0060     1.3860    -2.1190 h1         1 1TU       0.053700
     23 H7          -5.2660     0.5090    -1.2380 h1         1 1TU       0.053700
     24 H8          -4.6460     2.0280    -0.6010 h1         1 1TU       0.053700
     25 H9          -5.0240    -1.8180    -0.9730 hc         1 1TU       0.055700
     26 H10         -3.8450    -1.7260    -2.2740 hc         1 1TU       0.055700
     27 H11         -3.6400    -2.9100    -0.9850 hc         1 1TU       0.055700
     28 H12          4.5100     0.4830    -1.7060 ho         1 1TU       0.477000
     29 H5          -2.8390     2.5410     1.4150 ho         1 1TU       0.460000
     30 O18         -2.3280     2.2690     0.6430 oh         1 1TU      -0.519100
@<TRIPOS>BOND
     1     1     2 ar  
     2     1     6 ar  
     3     1    18 1   
     4     2     3 ar  
     5     2     7 1   
     6     3     4 ar  
     7     3    19 1   
     8     4     5 ar  
     9     4    17 1   
    10     5     6 ar  
    11     5    16 1   
    12     6    15 1   
    13     7     8 1   
    14     7    20 1   
    15     7    21 1   
    16     8    10 2   
    17     8    14 1   
    18     9    11 1   
    19     9    13 1   
    20     9    14 2   
    21    10    11 1   
    22    10    30 1   
    23    11    12 1   
    24    12    22 1   
    25    12    23 1   
    26    12    24 1   
    27    13    25 1   
    28    13    26 1   
    29    13    27 1   
    30    16    28 1   
    31    29    30 1   
@<TRIPOS>SUBSTRUCTURE
     1 1TU         1 TEMP              0 ****  ****    0 ROOT
