@<TRIPOS>MOLECULE
1TX
   27    26     1     0     0
SMALL
No Charge or Current Charge


@<TRIPOS>ATOM
      1 C13          4.0190    -0.3440    -0.4260 c          1 1TX       0.723000
      2 C21          1.4560    -0.0740    -0.2080 c3         1 1TX      -0.098400
      3 C22          0.2560     0.4480     0.6210 c3         1 1TX      -0.078400
      4 C24         -2.2860     0.3210     1.0360 c3         1 1TX      -0.136400
      5 C26         -5.5010    -0.0810    -0.8620 c3         1 1TX       0.153900
      6 O8           4.1900    -0.2750    -1.6380 o          1 1TX      -0.731500
      7 C14          2.8360     0.4940     0.2240 c3         1 1TX       0.019500
      8 N7           2.8730     1.9860     0.0100 n8         1 1TX      -0.991200
      9 C23         -1.0860    -0.1960     0.2070 c3         1 1TX      -0.070400
     10 C25         -3.5960    -0.3370     0.5910 c          1 1TX       0.587100
     11 O13         -3.9800    -1.4250     0.9980 o          1 1TX      -0.489000
     12 O14         -4.2580     0.4230    -0.3390 os         1 1TX      -0.454100
     13 H5           1.4910    -1.1660    -0.1130 hc         1 1TX       0.044700
     14 H6           1.2880     0.1390    -1.2720 hc         1 1TX       0.044700
     15 H7           0.4380     0.2450     1.6840 hc         1 1TX       0.026200
     16 H8           0.1750     1.5360     0.5110 hc         1 1TX       0.026200
     17 H9          -2.1130     0.0980     2.0950 hc         1 1TX       0.066700
     18 H10         -2.3560     1.4040     0.8760 hc         1 1TX       0.066700
     19 H11         -6.2370    -0.2190    -0.0590 h1         1 1TX       0.041367
     20 H12         -5.9210     0.6240    -1.5910 h1         1 1TX       0.041367
     21 H13         -5.3520    -1.0440    -1.3670 h1         1 1TX       0.041367
     22 H24          2.9170     0.3330     1.3080 h1         1 1TX       0.042700
     23 H25          2.8770     2.1710    -1.0010 hn         1 1TX       0.375500
     24 H34         -1.2700     0.0040    -0.8560 hc         1 1TX       0.051200
     25 H35         -1.0150    -1.2850     0.3190 hc         1 1TX       0.051200
     26 H2           1.9860     2.3890     0.3310 hn         1 1TX       0.375500
     27 OXT          4.7600    -0.9750     0.3170 o          1 1TX      -0.731500
@<TRIPOS>BOND
     1     1     6 1   
     2     1     7 1   
     3     1    27 1   
     4     2     3 1   
     5     2     7 1   
     6     2    13 1   
     7     2    14 1   
     8     3     9 1   
     9     3    15 1   
    10     3    16 1   
    11     4     9 1   
    12     4    10 1   
    13     4    17 1   
    14     4    18 1   
    15     5    12 1   
    16     5    19 1   
    17     5    20 1   
    18     5    21 1   
    19     7     8 1   
    20     7    22 1   
    21     8    23 1   
    22     8    26 1   
    23     9    24 1   
    24     9    25 1   
    25    10    11 2   
    26    10    12 1   
@<TRIPOS>SUBSTRUCTURE
     1 1TX         1 TEMP              0 ****  ****    0 ROOT
