@<TRIPOS>MOLECULE
1TX
   27    26     1     0     0
SMALL
abcg2


@<TRIPOS>ATOM
      1 C13          4.0560    -0.2910     0.0850 c          1 1TX       0.723000
      2 C21          1.5600    -0.1560    -0.0650 c3         1 1TX      -0.098400
      3 C22          0.2600     0.4890     0.3980 c3         1 1TX      -0.078400
      4 C24         -2.2560     0.3970     0.4130 c3         1 1TX      -0.136400
      5 C26         -5.8640    -0.1190    -0.1070 c3         1 1TX       0.153900
      6 O8           4.7480     0.0290    -0.9020 o          1 1TX      -0.731500
      7 C14          2.8240     0.5860     0.4020 c3         1 1TX       0.019500
      8 N7           2.9860     1.9170    -0.1610 n8         1 1TX      -0.991200
      9 C23         -0.9780    -0.2560    -0.0880 c3         1 1TX      -0.070400
     10 C25         -3.5130    -0.2930    -0.0430 c          1 1TX       0.587100
     11 O13         -3.5620    -1.3670    -0.5880 o          1 1TX      -0.489000
     12 O14         -4.5930     0.4270     0.2420 os         1 1TX      -0.454100
     13 H5           1.5940    -1.1830     0.3090 hc         1 1TX       0.044700
     14 H6           1.5710    -0.2230    -1.1590 hc         1 1TX       0.044700
     15 H7           0.2520     0.5340     1.4930 hc         1 1TX       0.026200
     16 H8           0.2000     1.5270     0.0520 hc         1 1TX       0.026200
     17 H9          -2.2680     0.4130     1.5090 hc         1 1TX       0.066700
     18 H10         -2.3000     1.4460     0.1070 hc         1 1TX       0.066700
     19 H11         -6.0550    -1.0550     0.4180 h1         1 1TX       0.041367
     20 H12         -6.6000     0.6190     0.1990 h1         1 1TX       0.041367
     21 H13         -5.9480    -0.2860    -1.1810 h1         1 1TX       0.041367
     22 H24          2.7580     0.6790     1.4930 h1         1 1TX       0.042700
     23 H25          3.3010     1.8170    -1.1180 hn         1 1TX       0.375500
     24 H34         -0.9790    -0.2820    -1.1810 hc         1 1TX       0.051200
     25 H35         -0.9320    -1.2950     0.2460 hc         1 1TX       0.051200
     26 H2           2.0960     2.4000    -0.1970 hn         1 1TX       0.375500
     27 OXT          4.2320    -1.2800     0.8240 o          1 1TX      -0.731500
@<TRIPOS>BOND
     1     1     6 1   
     2     1     7 1   
     3     1    27 1   
     4     2     3 1   
     5     2     7 1   
     6     2    13 1   
     7     2    14 1   
     8     3     9 1   
     9     3    15 1   
    10     3    16 1   
    11     4     9 1   
    12     4    10 1   
    13     4    17 1   
    14     4    18 1   
    15     5    12 1   
    16     5    19 1   
    17     5    20 1   
    18     5    21 1   
    19     7     8 1   
    20     7    22 1   
    21     8    23 1   
    22     8    26 1   
    23     9    24 1   
    24     9    25 1   
    25    10    11 2   
    26    10    12 1   
@<TRIPOS>SUBSTRUCTURE
     1 1TX         1 TEMP              0 ****  ****    0 ROOT
