@<TRIPOS>MOLECULE
1TZ
   50    52     1     0     0
SMALL
abcg2


@<TRIPOS>ATOM
      1 C18         -2.8460     0.4580     0.4260 ce         1 1TZ       0.374800
      2 C01         -4.2550     0.2160     0.1270 ca         1 1TZ      -0.130900
      3 C02         -5.0910     1.3430    -0.0090 ca         1 1TZ      -0.039800
      4 C03         -4.5690     2.7480     0.1320 c3         1 1TZ      -0.049800
      5 C04         -6.4390     1.1660    -0.2950 ca         1 1TZ      -0.125000
      6 C05         -6.9950    -0.0980    -0.4490 ca         1 1TZ      -0.056300
      7 C06         -8.4470    -0.2750    -0.7800 c3         1 1TZ      -0.047800
      8 C07         -6.1590    -1.1990    -0.3000 ca         1 1TZ      -0.125000
      9 C08         -4.8040    -1.0760    -0.0160 ca         1 1TZ      -0.039800
     10 C09         -4.0080    -2.3390     0.1490 c3         1 1TZ      -0.049800
     11 N24         -1.9390    -0.4270     0.2970 n2         1 1TZ      -0.411300
     12 N01         -0.6820    -0.0650     0.6110 ns         1 1TZ      -0.283900
     13 C23          0.3410    -0.9510     0.5070 c          1 1TZ       0.625100
     14 O23          0.1930    -2.1100     0.1770 o          1 1TZ      -0.542100
     15 C11          1.7080    -0.3460     0.7820 c3         1 1TZ       0.088500
     16 N22          2.5130    -1.3220     1.4830 n8         1 1TZ      -0.985200
     17 C10          2.2870     0.1600    -0.5610 c3         1 1TZ      -0.039200
     18 C12          3.6390     0.7730    -0.4090 cc         1 1TZ      -0.154400
     19 C2           3.9180     2.0930    -0.1850 cd         1 1TZ      -0.153100
     20 N23          5.2670     2.2790    -0.0750 na         1 1TZ      -0.220700
     21 C13          5.9020     1.0820    -0.2280 ca         1 1TZ      -0.046200
     22 C14          7.2610     0.7680    -0.2030 ca         1 1TZ      -0.126000
     23 C15          7.6140    -0.5530    -0.3980 ca         1 1TZ      -0.089000
     24 C16          6.6400    -1.5440    -0.6140 ca         1 1TZ      -0.135000
     25 C17          5.2960    -1.2290    -0.6350 ca         1 1TZ      -0.068000
     26 C            4.9060     0.1020    -0.4390 ca         1 1TZ      -0.100800
     27 H1          -2.5860     1.4610     0.7690 h4         1 1TZ      -0.021200
     28 H2          -3.7760     2.9670    -0.5840 hc         1 1TZ       0.046700
     29 H3          -5.3690     3.4670    -0.0370 hc         1 1TZ       0.046700
     30 H4          -4.1670     2.9420     1.1280 hc         1 1TZ       0.046700
     31 H5          -7.0720     2.0400    -0.3980 ha         1 1TZ       0.110500
     32 H6          -8.5810    -0.4890    -1.8430 hc         1 1TZ       0.043033
     33 H7          -8.8820    -1.1080    -0.2290 hc         1 1TZ       0.043033
     34 H8          -9.0220     0.6210    -0.5520 hc         1 1TZ       0.043033
     35 H9          -6.5770    -2.1940    -0.4040 ha         1 1TZ       0.110500
     36 H10         -3.2540    -2.4540    -0.6280 hc         1 1TZ       0.046700
     37 H11         -3.4710    -2.3590     1.0970 hc         1 1TZ       0.046700
     38 H12         -4.6700    -3.2030     0.1140 hc         1 1TZ       0.046700
     39 H13         -0.4920     0.8830     0.9190 hn         1 1TZ       0.300500
     40 H14          1.5970     0.5220     1.4410 h1         1 1TZ       0.060700
     41 H15          2.6840    -2.1230     0.8890 hn         1 1TZ       0.413000
     42 H16          3.4190    -0.9190     1.6890 hn         1 1TZ       0.413000
     43 H18          2.3320    -0.6780    -1.2640 hc         1 1TZ       0.058200
     44 H19          1.5990     0.8900    -0.9960 hc         1 1TZ       0.058200
     45 H20          3.2400     2.9280    -0.1010 h4         1 1TZ       0.210000
     46 H21          5.7140     3.1660     0.0840 hn         1 1TZ       0.352000
     47 H22          8.0120     1.5300    -0.0400 ha         1 1TZ       0.114000
     48 H23          8.6600    -0.8300    -0.3860 ha         1 1TZ       0.112000
     49 H24          6.9530    -2.5690    -0.7660 ha         1 1TZ       0.114000
     50 H25          4.5560    -2.0030    -0.8010 ha         1 1TZ       0.116000
@<TRIPOS>BOND
     1     1     2 1   
     2     1    11 2   
     3     1    27 1   
     4     2     3 ar  
     5     2     9 ar  
     6     3     4 1   
     7     3     5 ar  
     8     4    28 1   
     9     4    29 1   
    10     4    30 1   
    11     5     6 ar  
    12     5    31 1   
    13     6     7 1   
    14     6     8 ar  
    15     7    32 1   
    16     7    33 1   
    17     7    34 1   
    18     8     9 ar  
    19     8    35 1   
    20     9    10 1   
    21    10    36 1   
    22    10    37 1   
    23    10    38 1   
    24    11    12 1   
    25    12    13 1   
    26    12    39 1   
    27    13    14 2   
    28    13    15 1   
    29    15    16 1   
    30    15    17 1   
    31    15    40 1   
    32    16    41 1   
    33    16    42 1   
    34    17    18 1   
    35    17    43 1   
    36    17    44 1   
    37    18    19 2   
    38    18    26 1   
    39    19    20 1   
    40    19    45 1   
    41    20    21 1   
    42    20    46 1   
    43    21    22 ar  
    44    21    26 ar  
    45    22    23 ar  
    46    22    47 1   
    47    23    24 ar  
    48    23    48 1   
    49    24    25 ar  
    50    24    49 1   
    51    25    26 ar  
    52    25    50 1   
@<TRIPOS>SUBSTRUCTURE
     1 1TZ         1 TEMP              0 ****  ****    0 ROOT
