@<TRIPOS>MOLECULE
1TZ
   50    52     1     0     0
SMALL
No Charge or Current Charge


@<TRIPOS>ATOM
      1 C18         -2.9080     0.4740     0.3010 ce         1 1TZ       0.374800
      2 C01         -4.3690     0.1640     0.1440 ca         1 1TZ      -0.130900
      3 C02         -5.3120     0.9220     0.8870 ca         1 1TZ      -0.039800
      4 C03         -4.8660     2.0200     1.8510 c3         1 1TZ      -0.049800
      5 C04         -6.6900     0.6800     0.7350 ca         1 1TZ      -0.125000
      6 C05         -7.1540    -0.3010    -0.1530 ca         1 1TZ      -0.056300
      7 C06         -8.6460    -0.5490    -0.3130 c3         1 1TZ      -0.047800
      8 C07         -6.2270    -1.0480    -0.8950 ca         1 1TZ      -0.125000
      9 C08         -4.8420    -0.8310    -0.7590 ca         1 1TZ      -0.039800
     10 C09         -3.9000    -1.7200    -1.5690 c3         1 1TZ      -0.049800
     11 N24         -2.0910     0.5330    -0.7070 n2         1 1TZ      -0.411300
     12 N01         -0.7500     0.8030    -0.4810 ns         1 1TZ      -0.283900
     13 C23          0.1930    -0.1690    -0.1430 c          1 1TZ       0.625100
     14 O23         -0.1040    -1.3510     0.0150 o          1 1TZ      -0.542100
     15 C11          1.6610     0.3650     0.0440 c3         1 1TZ       0.088500
     16 N22          2.2340     0.2230     1.4260 n8         1 1TZ      -0.985200
     17 C10          2.6140    -0.2620    -1.0060 c3         1 1TZ      -0.039200
     18 C12          4.0110     0.3120    -0.9770 cc         1 1TZ      -0.154400
     19 C2           4.4710     1.4300    -1.6670 cd         1 1TZ      -0.153100
     20 N23          5.8330     1.6580    -1.3520 na         1 1TZ      -0.220700
     21 C13          6.1910     0.6580    -0.4670 ca         1 1TZ      -0.046200
     22 C14          7.4420     0.4490     0.1290 ca         1 1TZ      -0.126000
     23 C15          7.5890    -0.6510     1.0010 ca         1 1TZ      -0.089000
     24 C16          6.4940    -1.5110     1.2540 ca         1 1TZ      -0.135000
     25 C17          5.2460    -1.2760     0.6380 ca         1 1TZ      -0.068000
     26 C            5.1330    -0.1700    -0.2180 ca         1 1TZ      -0.100800
     27 H1          -2.5720     0.7610     1.3000 h4         1 1TZ      -0.021200
     28 H2          -4.2000     2.7370     1.3570 hc         1 1TZ       0.046700
     29 H3          -5.7170     2.5890     2.2440 hc         1 1TZ       0.046700
     30 H4          -4.3330     1.5970     2.7110 hc         1 1TZ       0.046700
     31 H5          -7.4080     1.2640     1.3060 ha         1 1TZ       0.110500
     32 H6          -9.0630     0.0830    -1.1060 hc         1 1TZ       0.043033
     33 H7          -8.8520    -1.5940    -0.5730 hc         1 1TZ       0.043033
     34 H8          -9.1900    -0.3270     0.6130 hc         1 1TZ       0.043033
     35 H9          -6.5890    -1.8100    -1.5820 ha         1 1TZ       0.110500
     36 H10         -3.4810    -1.1760    -2.4240 hc         1 1TZ       0.046700
     37 H11         -3.0690    -2.0880    -0.9560 hc         1 1TZ       0.046700
     38 H12         -4.4150    -2.6020    -1.9660 hc         1 1TZ       0.046700
     39 H13         -0.3950     1.7510    -0.5670 hn         1 1TZ       0.300500
     40 H14          1.6300     1.4420    -0.1700 h1         1 1TZ       0.060700
     41 H15          2.2170    -0.7680     1.6960 hn         1 1TZ       0.413000
     42 H16          3.2400     0.4310     1.3680 hn         1 1TZ       0.413000
     43 H18          2.6550    -1.3490    -0.8610 hc         1 1TZ       0.058200
     44 H19          2.1860    -0.1090    -2.0050 hc         1 1TZ       0.058200
     45 H20          3.9280     2.0800    -2.3490 h4         1 1TZ       0.210000
     46 H21          6.4270     2.4020    -1.7050 hn         1 1TZ       0.352000
     47 H22          8.2790     1.1130    -0.0750 ha         1 1TZ       0.114000
     48 H23          8.5480    -0.8390     1.4790 ha         1 1TZ       0.112000
     49 H24          6.6160    -2.3590     1.9240 ha         1 1TZ       0.114000
     50 H25          4.4030    -1.9380     0.8210 ha         1 1TZ       0.116000
@<TRIPOS>BOND
     1     1     2 1   
     2     1    11 2   
     3     1    27 1   
     4     2     3 ar  
     5     2     9 ar  
     6     3     4 1   
     7     3     5 ar  
     8     4    28 1   
     9     4    29 1   
    10     4    30 1   
    11     5     6 ar  
    12     5    31 1   
    13     6     7 1   
    14     6     8 ar  
    15     7    32 1   
    16     7    33 1   
    17     7    34 1   
    18     8     9 ar  
    19     8    35 1   
    20     9    10 1   
    21    10    36 1   
    22    10    37 1   
    23    10    38 1   
    24    11    12 1   
    25    12    13 1   
    26    12    39 1   
    27    13    14 2   
    28    13    15 1   
    29    15    16 1   
    30    15    17 1   
    31    15    40 1   
    32    16    41 1   
    33    16    42 1   
    34    17    18 1   
    35    17    43 1   
    36    17    44 1   
    37    18    19 2   
    38    18    26 1   
    39    19    20 1   
    40    19    45 1   
    41    20    21 1   
    42    20    46 1   
    43    21    22 ar  
    44    21    26 ar  
    45    22    23 ar  
    46    22    47 1   
    47    23    24 ar  
    48    23    48 1   
    49    24    25 ar  
    50    24    49 1   
    51    25    26 ar  
    52    25    50 1   
@<TRIPOS>SUBSTRUCTURE
     1 1TZ         1 TEMP              0 ****  ****    0 ROOT
