@<TRIPOS>MOLECULE
1U1
   16    16     1     0     0
SMALL
bcc


@<TRIPOS>ATOM
      1 C01         -1.0310     1.1270    -0.0130 cc         1 1U1      -0.069000
      2 C02          0.2080     0.4370     0.0470 cc         1 1U1      -0.295500
      3 C03          0.0920    -0.9250     0.0880 cd         1 1U1       0.009300
      4 S04         -1.5570    -1.3890     0.0500 ss         1 1U1       0.018200
      5 C05         -2.0680     0.2480    -0.0160 cd         1 1U1      -0.046700
      6 CL6         -3.7270     0.6430    -0.0770 cl         1 1U1      -0.103400
      7 C07          1.0960    -2.0500     0.1900 c          1 1U1       0.951200
      8 O08          0.6050    -3.1820     0.0700 o          1 1U1      -0.799800
      9 O09          2.2830    -1.7350     0.3930 o          1 1U1      -0.799800
     10 S10          1.7220     1.3470    -0.0410 sy         1 1U1       1.307200
     11 O11          2.4370     0.9310    -1.2380 o          1 1U1      -0.649800
     12 O12          1.3950     2.7630     0.0750 o          1 1U1      -0.649800
     13 N13          2.4550     0.9110     1.3650 n8         1 1U1      -0.896700
     14 H1          -1.1430     2.2000    -0.0520 ha         1 1U1       0.166000
     15 H3           2.6940    -0.0840     1.3140 hn         1 1U1       0.429300
     16 H4           3.2710     1.4880     1.5500 hn         1 1U1       0.429300
@<TRIPOS>BOND
     1     1     2 1   
     2     1     5 2   
     3     1    14 1   
     4     2     3 2   
     5     2    10 1   
     6     3     4 1   
     7     3     7 1   
     8     4     5 1   
     9     5     6 1   
    10     7     8 1   
    11     7     9 1   
    12    10    11 2   
    13    10    12 2   
    14    10    13 1   
    15    13    15 1   
    16    13    16 1   
@<TRIPOS>SUBSTRUCTURE
     1 1U1         1 TEMP              0 ****  ****    0 ROOT
