@<TRIPOS>MOLECULE
1U1
   16    16     1     0     0
SMALL
No Charge or Current Charge


@<TRIPOS>ATOM
      1 C01         -1.0850     1.0840    -0.0210 cc         1 1U1      -0.051000
      2 C02          0.1980     0.4600     0.0330 cc         1 1U1      -0.295500
      3 C03          0.0680    -0.9380     0.0730 cd         1 1U1      -0.135600
      4 S04         -1.6280    -1.4540    -0.0380 ss         1 1U1       0.308000
      5 C05         -2.1500     0.2300    -0.0390 cd         1 1U1      -0.100000
      6 Cl6         -3.8190     0.7030    -0.1050 cl         1 1U1      -0.195000
      7 C07          1.1300    -1.9810     0.2340 c          1 1U1       0.740600
      8 O08          0.7870    -3.1540     0.2020 o          1 1U1      -0.694500
      9 O09          2.2850    -1.6510     0.4490 o          1 1U1      -0.694500
     10 S10          1.7290     1.4190     0.0250 sy         1 1U1       1.165600
     11 O11          2.6050     0.9520    -1.0470 o          1 1U1      -0.579000
     12 O12          1.4190     2.8350     0.2240 o          1 1U1      -0.579000
     13 N13          2.4770     0.9360     1.3870 n8         1 1U1      -1.007100
     14 H1          -1.1980     2.1650    -0.0470 ha         1 1U1       0.148000
     15 H3           2.4810    -0.0740     1.2020 hn         1 1U1       0.484500
     16 H4           3.4340     1.1970     1.1740 hn         1 1U1       0.484500
@<TRIPOS>BOND
     1     1     2 1   
     2     1     5 2   
     3     1    14 1   
     4     2     3 2   
     5     2    10 1   
     6     3     4 1   
     7     3     7 1   
     8     4     5 1   
     9     5     6 1   
    10     7     8 1   
    11     7     9 1   
    12    10    11 2   
    13    10    12 2   
    14    10    13 1   
    15    13    15 1   
    16    13    16 1   
@<TRIPOS>SUBSTRUCTURE
     1 1U1         1 TEMP              0 ****  ****    0 ROOT
