@<TRIPOS>MOLECULE
1U2
   39    41     1     0     0
SMALL
abcg2


@<TRIPOS>ATOM
      1 O           -2.3390    -1.1620    -0.3200 o          1 1U2      -0.597100
      2 C8          -2.4060    -0.0080     0.0580 c          1 1U2       0.664100
      3 N4          -3.5750     0.6870     0.1970 ns         1 1U2      -0.165000
      4 C9          -4.8640     0.2070    -0.0560 ca         1 1U2      -0.015000
      5 C14         -5.9140     0.7700     0.6730 ca         1 1U2      -0.142000
      6 C13         -7.2220     0.3710     0.4500 ca         1 1U2      -0.085000
      7 C12         -7.5070    -0.6030    -0.4980 ca         1 1U2      -0.131000
      8 C11         -6.4650    -1.1570    -1.2270 ca         1 1U2      -0.085000
      9 C10         -5.1510    -0.7580    -1.0220 ca         1 1U2      -0.142000
     10 N3          -1.3090     0.7460     0.3990 ns         1 1U2      -0.169000
     11 C7           0.0160     0.3080     0.3610 ca         1 1U2       0.003000
     12 C6           0.9990     1.2080     0.0220 ca         1 1U2      -0.168000
     13 C15          0.3760    -1.0150     0.7280 ca         1 1U2      -0.107000
     14 C16          1.6870    -1.3950     0.7200 ca         1 1U2      -0.075000
     15 C17          2.7160    -0.4910     0.3690 ca         1 1U2      -0.060000
     16 C5           2.3590     0.8360     0.0250 ca         1 1U2       0.000000
     17 C4           3.3870     1.7430    -0.3260 ca         1 1U2      -0.110000
     18 C3           4.6950     1.3470    -0.3390 ca         1 1U2      -0.081000
     19 C18          4.0740    -0.8690     0.3610 ca         1 1U2      -0.066000
     20 C2           5.0580     0.0240     0.0140 ca         1 1U2      -0.201900
     21 C1           6.4850    -0.4030     0.0190 ce         1 1U2       0.661800
     22 N2           7.2610     0.1870    -0.9330 nv         1 1U2      -1.031200
     23 N1           6.9950    -1.2260     0.8540 n2         1 1U2      -0.845100
     24 H8          -3.5360     1.5630     0.6970 hn         1 1U2       0.148000
     25 H13         -5.7040     1.5240     1.4230 ha         1 1U2       0.124000
     26 H12         -8.0180     0.8210     1.0290 ha         1 1U2       0.114500
     27 H11         -8.5270    -0.9210    -0.6680 ha         1 1U2       0.116000
     28 H10         -6.6690    -1.9090    -1.9780 ha         1 1U2       0.114500
     29 H9          -4.3660    -1.1930    -1.6200 ha         1 1U2       0.124000
     30 H7          -1.4320     1.7460     0.4600 hn         1 1U2       0.148000
     31 H6           0.7330     2.2200    -0.2600 ha         1 1U2       0.113000
     32 H14         -0.3820    -1.7220     1.0290 ha         1 1U2       0.142000
     33 H15          1.9500    -2.4060     1.0050 ha         1 1U2       0.120000
     34 H5           3.1270     2.7610    -0.5850 ha         1 1U2       0.115000
     35 H4           5.4650     2.0620    -0.6020 ha         1 1U2       0.124000
     36 H16          4.3270    -1.8910     0.6180 ha         1 1U2       0.119000
     37 H3           6.8260     0.4630    -1.7980 hn         1 1U2       0.468000
     38 H2           8.1910    -0.1840    -1.0410 hn         1 1U2       0.468000
     39 H1           6.3150    -1.4860     1.5590 hn         1 1U2       0.387400
@<TRIPOS>BOND
     1     1     2 2   
     2     2     3 1   
     3     2    10 1   
     4     3     4 1   
     5     3    24 1   
     6     4     5 ar  
     7     4     9 ar  
     8     5     6 ar  
     9     5    25 1   
    10     6     7 ar  
    11     6    26 1   
    12     7     8 ar  
    13     7    27 1   
    14     8     9 ar  
    15     8    28 1   
    16     9    29 1   
    17    10    11 1   
    18    10    30 1   
    19    11    12 ar  
    20    11    13 ar  
    21    12    16 ar  
    22    12    31 1   
    23    13    14 ar  
    24    13    32 1   
    25    14    15 ar  
    26    14    33 1   
    27    15    16 ar  
    28    15    19 ar  
    29    16    17 ar  
    30    17    18 ar  
    31    17    34 1   
    32    18    20 ar  
    33    18    35 1   
    34    19    20 ar  
    35    19    36 1   
    36    20    21 1   
    37    21    22 1   
    38    21    23 2   
    39    22    37 1   
    40    22    38 1   
    41    23    39 1   
@<TRIPOS>SUBSTRUCTURE
     1 1U2         1 TEMP              0 ****  ****    0 ROOT
