@<TRIPOS>MOLECULE
1U2
   39    41     1     0     0
SMALL
No Charge or Current Charge


@<TRIPOS>ATOM
      1 O           -2.5060    -1.6170    -0.0920 o          1 1U2      -0.597100
      2 C8          -2.4670    -0.3940    -0.0400 c          1 1U2       0.664100
      3 N4          -3.5860     0.4270    -0.0290 ns         1 1U2      -0.165000
      4 C9          -4.9820     0.1500    -0.0690 ca         1 1U2      -0.015000
      5 C14         -5.8620     1.2490    -0.0420 ca         1 1U2      -0.142000
      6 C13         -7.2540     1.0570    -0.0790 ca         1 1U2      -0.085000
      7 C12         -7.7810    -0.2430    -0.1430 ca         1 1U2      -0.131000
      8 C11         -6.9140    -1.3470    -0.1710 ca         1 1U2      -0.085000
      9 C10         -5.5220    -1.1550    -0.1340 ca         1 1U2      -0.142000
     10 N3          -1.2960     0.3490     0.0150 ns         1 1U2      -0.169000
     11 C7           0.0770    -0.0230     0.0280 ca         1 1U2       0.003000
     12 C6           1.0270     1.0140     0.0880 ca         1 1U2      -0.168000
     13 C15          0.5290    -1.3610    -0.0140 ca         1 1U2      -0.107000
     14 C16          1.9050    -1.6490     0.0030 ca         1 1U2      -0.075000
     15 C17          2.8480    -0.6070     0.0620 ca         1 1U2      -0.060000
     16 C5           2.4050     0.7290     0.1040 ca         1 1U2       0.000000
     17 C4           3.3450     1.7710     0.1680 ca         1 1U2      -0.110000
     18 C3           4.7210     1.4850     0.1840 ca         1 1U2      -0.081000
     19 C18          4.2260    -0.8940     0.0790 ca         1 1U2      -0.066000
     20 C2           5.1830     0.1490     0.1220 ca         1 1U2      -0.201900
     21 C1           6.6450    -0.1570     0.1810 ce         1 1U2       0.661800
     22 N2           7.4940     0.7250    -0.3720 nv         1 1U2      -1.031200
     23 N1           7.1130    -1.2640     0.5880 n2         1 1U2      -0.845100
     24 H8          -3.3730     1.4150     0.0170 hn         1 1U2       0.148000
     25 H13         -5.4680     2.2620     0.0080 ha         1 1U2       0.124000
     26 H12         -7.9230     1.9140    -0.0570 ha         1 1U2       0.114500
     27 H11         -8.8580    -0.3940    -0.1720 ha         1 1U2       0.116000
     28 H10         -7.3220    -2.3550    -0.2200 ha         1 1U2       0.114500
     29 H9          -4.8840    -2.0320    -0.1570 ha         1 1U2       0.124000
     30 H7          -1.4430     1.3490     0.0530 hn         1 1U2       0.148000
     31 H6           0.6930     2.0480     0.1220 ha         1 1U2       0.113000
     32 H14         -0.1660    -2.1930    -0.0600 ha         1 1U2       0.142000
     33 H15          2.2350    -2.6850    -0.0310 ha         1 1U2       0.120000
     34 H5           3.0120     2.8050     0.2120 ha         1 1U2       0.115000
     35 H4           5.4260     2.3110     0.2550 ha         1 1U2       0.124000
     36 H16          4.5490    -1.9320     0.0390 ha         1 1U2       0.119000
     37 H3           7.0830     1.3380    -1.0660 hn         1 1U2       0.468000
     38 H2           8.4000     0.3380    -0.6040 hn         1 1U2       0.468000
     39 H1           6.3420    -1.7880     1.0220 hn         1 1U2       0.387400
@<TRIPOS>BOND
     1     1     2 2   
     2     2     3 1   
     3     2    10 1   
     4     3     4 1   
     5     3    24 1   
     6     4     5 ar  
     7     4     9 ar  
     8     5     6 ar  
     9     5    25 1   
    10     6     7 ar  
    11     6    26 1   
    12     7     8 ar  
    13     7    27 1   
    14     8     9 ar  
    15     8    28 1   
    16     9    29 1   
    17    10    11 1   
    18    10    30 1   
    19    11    12 ar  
    20    11    13 ar  
    21    12    16 ar  
    22    12    31 1   
    23    13    14 ar  
    24    13    32 1   
    25    14    15 ar  
    26    14    33 1   
    27    15    16 ar  
    28    15    19 ar  
    29    16    17 ar  
    30    17    18 ar  
    31    17    34 1   
    32    18    20 ar  
    33    18    35 1   
    34    19    20 ar  
    35    19    36 1   
    36    20    21 1   
    37    21    22 1   
    38    21    23 2   
    39    22    37 1   
    40    22    38 1   
    41    23    39 1   
@<TRIPOS>SUBSTRUCTURE
     1 1U2         1 TEMP              0 ****  ****    0 ROOT
