@<TRIPOS>MOLECULE
1U3
   30    31     1     0     0
SMALL
No Charge or Current Charge


@<TRIPOS>ATOM
      1 C01          0.6890     4.3880     0.2560 c3         1 1U3      -0.134400
      2 C02         -0.1400     3.1380     0.3610 cc         1 1U3       0.218300
      3 C03          0.1790     1.8110     0.3300 cd         1 1U3      -0.247600
      4 C04         -1.0510     1.1330     0.4820 cd         1 1U3       0.357500
      5 N05         -2.0730     1.9560     0.6360 nc         1 1U3      -0.381300
      6 O06         -1.4930     3.2670     0.5530 os         1 1U3      -0.089700
      7 C07         -1.2840    -0.3150     0.4900 ca         1 1U3      -0.139500
      8 C08         -1.6000    -0.9670     1.6990 ca         1 1U3      -0.064000
      9 C09         -1.8210    -2.3550     1.7200 ca         1 1U3      -0.106000
     10 C10         -1.7290    -3.1000     0.5330 ca         1 1U3      -0.076000
     11 C11         -1.4200    -2.4560    -0.6770 ca         1 1U3      -0.095000
     12 C12         -1.2000    -1.0690    -0.7010 ca         1 1U3       0.159000
     13 Cl1         -0.8190    -0.2900    -2.2360 cl         1 1U3      -0.194000
     14 C14          1.5530     1.2880     0.1710 c          1 1U3       0.628700
     15 O15          2.5320     1.9960    -0.0210 o          1 1U3      -0.662100
     16 N16          1.6650    -0.0790     0.2710 ns         1 1U3      -0.449900
     17 C17          2.9280    -0.8380     0.1330 c3         1 1U3      -0.060000
     18 C18          2.6800    -2.3690     0.1310 c          1 1U3       0.713000
     19 O19          2.1110    -2.8600     1.0950 o          1 1U3      -0.728500
     20 O20          3.0180    -3.0100    -0.8540 o          1 1U3      -0.728500
     21 H1           0.0640     5.2840     0.3470 hc         1 1U3       0.064033
     22 H2           1.4440     4.4220     1.0500 hc         1 1U3       0.064033
     23 H3           1.2040     4.4320    -0.7100 hc         1 1U3       0.064033
     24 H4          -1.6730    -0.3970     2.6240 ha         1 1U3       0.119000
     25 H5          -2.0620    -2.8520     2.6570 ha         1 1U3       0.111000
     26 H6          -1.8990    -4.1750     0.5500 ha         1 1U3       0.110000
     27 H7          -1.3510    -3.0310    -1.5960 ha         1 1U3       0.126000
     28 H8           0.8200    -0.5960     0.4800 hn         1 1U3       0.347500
     29 H9           3.4210    -0.5530    -0.8060 h1         1 1U3       0.037200
     30 H10          3.5930    -0.5920     0.9710 h1         1 1U3       0.037200
@<TRIPOS>BOND
     1     1     2 1   
     2     1    21 1   
     3     1    22 1   
     4     1    23 1   
     5     2     3 2   
     6     2     6 1   
     7     3     4 1   
     8     3    14 1   
     9     4     5 2   
    10     4     7 1   
    11     5     6 1   
    12     7     8 ar  
    13     7    12 ar  
    14     8     9 ar  
    15     8    24 1   
    16     9    10 ar  
    17     9    25 1   
    18    10    11 ar  
    19    10    26 1   
    20    11    12 ar  
    21    11    27 1   
    22    12    13 1   
    23    14    15 2   
    24    14    16 1   
    25    16    17 1   
    26    16    28 1   
    27    17    18 1   
    28    17    29 1   
    29    17    30 1   
    30    18    19 1   
    31    18    20 1   
@<TRIPOS>SUBSTRUCTURE
     1 1U3         1 TEMP              0 ****  ****    0 ROOT
