@<TRIPOS>MOLECULE
1U3
   30    31     1     0     0
SMALL
bcc


@<TRIPOS>ATOM
      1 C01          0.7150     4.3050     0.4460 c3         1 1U3      -0.134400
      2 C02         -0.0810     3.0580     0.5020 cc         1 1U3       0.328000
      3 C03          0.2100     1.7480     0.2680 cd         1 1U3      -0.378200
      4 C04         -1.0160     1.0810     0.5450 cd         1 1U3       0.422800
      5 N05         -1.9350     1.9250     0.9120 nc         1 1U3      -0.381300
      6 O06         -1.3500     3.1530     0.8910 os         1 1U3      -0.134100
      7 C07         -1.3340    -0.3540     0.4900 ca         1 1U3      -0.139500
      8 C08         -1.7780    -1.0020     1.6410 ca         1 1U3      -0.082000
      9 C09         -2.0860    -2.3530     1.6240 ca         1 1U3      -0.124000
     10 C10         -1.9560    -3.0740     0.4470 ca         1 1U3      -0.094000
     11 C11         -1.5240    -2.4480    -0.7130 ca         1 1U3      -0.113000
     12 C12         -1.2190    -1.0980    -0.6830 ca         1 1U3       0.067400
     13 CL1         -0.7060    -0.3300    -2.1470 cl         1 1U3      -0.102400
     14 C14          1.5180     1.2110    -0.1710 c          1 1U3       0.695700
     15 O15          2.2860     1.8950    -0.8410 o          1 1U3      -0.662100
     16 N16          1.7920    -0.0310     0.2220 ns         1 1U3      -0.516900
     17 C17          2.9700    -0.7590    -0.1670 c3         1 1U3      -0.060000
     18 C18          2.9460    -2.1750     0.4460 c          1 1U3       0.923600
     19 O19          1.9850    -2.4490     1.1880 o          1 1U3      -0.833800
     20 O20          3.9040    -2.9050     0.1360 o          1 1U3      -0.833800
     21 H1           0.0700     5.1810     0.4120 hc         1 1U3       0.064033
     22 H2           1.3520     4.3880     1.3280 hc         1 1U3       0.064033
     23 H3           1.3590     4.3030    -0.4280 hc         1 1U3       0.064033
     24 H4          -1.8690    -0.4360     2.5580 ha         1 1U3       0.137000
     25 H5          -2.4250    -2.8380     2.5290 ha         1 1U3       0.129000
     26 H6          -2.1900    -4.1300     0.4230 ha         1 1U3       0.128000
     27 H7          -1.4290    -3.0060    -1.6330 ha         1 1U3       0.144000
     28 H8           1.1610    -0.5660     0.8060 hn         1 1U3       0.347500
     29 H9           3.0360    -0.8390    -1.2570 h1         1 1U3       0.037200
     30 H10          3.8770    -0.2440     0.1630 h1         1 1U3       0.037200
@<TRIPOS>BOND
     1     1     2 1   
     2     1    21 1   
     3     1    22 1   
     4     1    23 1   
     5     2     3 2   
     6     2     6 1   
     7     3     4 1   
     8     3    14 1   
     9     4     5 2   
    10     4     7 1   
    11     5     6 1   
    12     7     8 ar  
    13     7    12 ar  
    14     8     9 ar  
    15     8    24 1   
    16     9    10 ar  
    17     9    25 1   
    18    10    11 ar  
    19    10    26 1   
    20    11    12 ar  
    21    11    27 1   
    22    12    13 1   
    23    14    15 2   
    24    14    16 1   
    25    16    17 1   
    26    16    28 1   
    27    17    18 1   
    28    17    29 1   
    29    17    30 1   
    30    18    19 1   
    31    18    20 1   
@<TRIPOS>SUBSTRUCTURE
     1 1U3         1 TEMP              0 ****  ****    0 ROOT
