@<TRIPOS>MOLECULE
1U4
   65    66     1     0     0
SMALL
No Charge or Current Charge


@<TRIPOS>ATOM
      1 C9           2.2990     0.8650    -0.6120 c          1 1U4       0.629100
      2 O10          1.7070     0.9730    -1.6740 o          1 1U4      -0.550000
      3 O8           3.5390     1.3540    -0.3400 os         1 1U4      -0.476100
      4 C7           4.2160     2.0630    -1.3910 c3         1 1U4       0.229900
      5 C6           5.5660     2.5330    -0.8660 ca         1 1U4      -0.074300
      6 C4           5.6810     3.7780    -0.2140 ca         1 1U4      -0.086000
      7 C2           6.9280     4.2130     0.2670 ca         1 1U4      -0.124500
      8 C1           8.0670     3.4070     0.1020 ca         1 1U4      -0.119000
      9 C63          7.9580     2.1650    -0.5450 ca         1 1U4      -0.124500
     10 C61          6.7120     1.7280    -1.0280 ca         1 1U4      -0.086000
     11 N11          1.8070     0.2570     0.5160 ns         1 1U4      -0.439900
     12 C12          0.4720    -0.3950     0.6270 c3         1 1U4      -0.272000
     13 P13          0.3350    -2.1510     0.0460 p5         1 1U4       1.354300
     14 O54          1.3230    -3.0160     0.7470 o          1 1U4      -0.825000
     15 O55          0.3180    -2.2640    -1.4390 o          1 1U4      -0.825000
     16 N14         -1.1530    -2.5440     0.6240 n7         1 1U4      -0.950500
     17 C15         -2.4370    -1.9000     0.2000 c3         1 1U4       0.156500
     18 C16         -2.7030    -0.4900     0.8410 c          1 1U4       0.568100
     19 O17         -2.5800    -0.2800     2.0440 o          1 1U4      -0.655100
     20 C38         -3.6160    -2.8480     0.5390 c3         1 1U4      -0.043100
     21 C41         -3.6060    -4.1420    -0.2700 ca         1 1U4      -0.029300
     22 C42         -4.0400    -4.1420    -1.6110 ca         1 1U4      -0.092500
     23 C50         -3.1770    -5.3500     0.3150 ca         1 1U4      -0.092500
     24 C44         -4.0420    -5.3340    -2.3570 ca         1 1U4      -0.121000
     25 C48         -3.1790    -6.5410    -0.4310 ca         1 1U4      -0.121000
     26 C46         -3.6120    -6.5340    -1.7670 ca         1 1U4      -0.137000
     27 N18         -3.0800     0.5040    -0.0440 ns         1 1U4      -0.450900
     28 C19         -3.4450     1.8930     0.3390 c3         1 1U4      -0.040300
     29 C33         -4.9970     2.0440     0.4240 c          1 1U4       0.713000
     30 O34         -5.6770     1.6720    -0.5240 o          1 1U4      -0.737500
     31 C20         -2.8310     2.9470    -0.6220 c3         1 1U4      -0.064400
     32 C21         -1.2800     2.9400    -0.7430 c3         1 1U4      -0.068700
     33 C26         -0.8020     3.9670    -1.7940 c3         1 1U4      -0.076600
     34 C22         -0.5700     3.1730     0.6120 c3         1 1U4      -0.076600
     35 O35         -5.4810     2.4680     1.4650 o          1 1U4      -0.737500
     36 H7           3.6270     2.9330    -1.7140 h1         1 1U4       0.049700
     37 H7A          4.3660     1.4140    -2.2640 h1         1 1U4       0.049700
     38 H4           4.8030     4.4060    -0.0800 ha         1 1U4       0.121000
     39 H2           7.0110     5.1740     0.7700 ha         1 1U4       0.101000
     40 H1           9.0320     3.7440     0.4750 ha         1 1U4       0.096000
     41 H63          8.8390     1.5400    -0.6730 ha         1 1U4       0.101000
     42 H61          6.6350     0.7640    -1.5250 ha         1 1U4       0.121000
     43 HN11         2.4350     0.2480     1.3110 hn         1 1U4       0.317500
     44 H12          0.1590    -0.3780     1.6760 h1         1 1U4       0.066200
     45 H12A        -0.2480     0.1760     0.0350 h1         1 1U4       0.066200
     46 HN14        -1.0310    -2.4280     1.6260 hn         1 1U4       0.441000
     47 H15         -2.4370    -1.7620    -0.8910 h1         1 1U4       0.076700
     48 H38         -3.6100    -3.0640     1.6140 hc         1 1U4       0.061200
     49 H38A        -4.5570    -2.3170     0.3480 hc         1 1U4       0.061200
     50 H42         -4.3770    -3.2180    -2.0750 ha         1 1U4       0.114000
     51 H50         -2.8370    -5.3640     1.3480 ha         1 1U4       0.114000
     52 H44         -4.3780    -5.3260    -3.3910 ha         1 1U4       0.089000
     53 H48         -2.8450    -7.4690     0.0270 ha         1 1U4       0.089000
     54 H46         -3.6140    -7.4550    -2.3440 ha         1 1U4       0.083000
     55 HN18        -3.1830     0.2400    -1.0170 hn         1 1U4       0.299500
     56 H19         -3.0610     2.0900     1.3470 h1         1 1U4       0.062700
     57 H20         -3.2610     2.7990    -1.6200 hc         1 1U4       0.036700
     58 H20A        -3.1540     3.9430    -0.2940 hc         1 1U4       0.036700
     59 H21         -0.9770     1.9530    -1.1120 hc         1 1U4       0.071700
     60 H26         -1.0670     4.9880    -1.4910 hc         1 1U4       0.019367
     61 H26A         0.2860     3.9170    -1.9180 hc         1 1U4       0.019367
     62 H26B        -1.2620     3.7670    -2.7690 hc         1 1U4       0.019367
     63 H22         -0.7980     2.3720     1.3240 hc         1 1U4       0.019367
     64 H22A         0.5190     3.1950     0.4790 hc         1 1U4       0.019367
     65 H22B        -0.8790     4.1280     1.0560 hc         1 1U4       0.019367
@<TRIPOS>BOND
     1     1     2 2   
     2     1     3 1   
     3     1    11 1   
     4     3     4 1   
     5     4     5 1   
     6     4    36 1   
     7     4    37 1   
     8     5     6 ar  
     9     5    10 ar  
    10     6     7 ar  
    11     6    38 1   
    12     7     8 ar  
    13     7    39 1   
    14     8     9 ar  
    15     8    40 1   
    16     9    10 ar  
    17     9    41 1   
    18    10    42 1   
    19    11    12 1   
    20    11    43 1   
    21    12    13 1   
    22    12    44 1   
    23    12    45 1   
    24    13    14 1   
    25    13    15 1   
    26    13    16 1   
    27    16    17 1   
    28    16    46 1   
    29    17    18 1   
    30    17    20 1   
    31    17    47 1   
    32    18    19 2   
    33    18    27 1   
    34    20    21 1   
    35    20    48 1   
    36    20    49 1   
    37    21    22 ar  
    38    21    23 ar  
    39    22    24 ar  
    40    22    50 1   
    41    23    25 ar  
    42    23    51 1   
    43    24    26 ar  
    44    24    52 1   
    45    25    26 ar  
    46    25    53 1   
    47    26    54 1   
    48    27    28 1   
    49    27    55 1   
    50    28    29 1   
    51    28    31 1   
    52    28    56 1   
    53    29    30 1   
    54    29    35 1   
    55    31    32 1   
    56    31    57 1   
    57    31    58 1   
    58    32    33 1   
    59    32    34 1   
    60    32    59 1   
    61    33    60 1   
    62    33    61 1   
    63    33    62 1   
    64    34    63 1   
    65    34    64 1   
    66    34    65 1   
@<TRIPOS>SUBSTRUCTURE
     1 1U4         1 TEMP              0 ****  ****    0 ROOT
