@<TRIPOS>MOLECULE
1U4
   65    66     1     0     0
SMALL
abcg2


@<TRIPOS>ATOM
      1 C9           2.1560     1.2810    -0.0590 c          1 1U4       0.629100
      2 O10          1.4320     1.7350    -0.9210 o          1 1U4      -0.550000
      3 O8           3.4930     1.4270    -0.0640 os         1 1U4      -0.476100
      4 C7           4.0570     2.1600    -1.1540 c3         1 1U4       0.229900
      5 C6           5.5470     2.0790    -1.0120 ca         1 1U4      -0.074300
      6 C4           6.2620     3.1140    -0.4180 ca         1 1U4      -0.086000
      7 C2           7.6410     3.0290    -0.2710 ca         1 1U4      -0.124500
      8 C1           8.3170     1.9000    -0.7130 ca         1 1U4      -0.119000
      9 C63          7.6100     0.8600    -1.3050 ca         1 1U4      -0.124500
     10 C61          6.2340     0.9500    -1.4520 ca         1 1U4      -0.086000
     11 N11          1.7620     0.6090     1.0350 ns         1 1U4      -0.439900
     12 C12          0.4190     0.0930     1.1940 c3         1 1U4      -0.272000
     13 P13          0.3490    -1.7030     0.7520 p5         1 1U4       1.354300
     14 O54          1.2270    -2.4350     1.7400 o          1 1U4      -0.825000
     15 O55          0.5990    -1.8160    -0.7290 o          1 1U4      -0.825000
     16 N14         -1.2590    -2.1670     1.0660 n7         1 1U4      -0.950500
     17 C15         -2.3480    -1.6760     0.2630 c3         1 1U4       0.156500
     18 C16         -2.9440    -0.3920     0.8320 c          1 1U4       0.568100
     19 O17         -3.2210    -0.3060     2.0240 o          1 1U4      -0.655100
     20 C38         -3.4890    -2.7060     0.1550 c3         1 1U4      -0.043100
     21 C41         -3.0590    -3.9480    -0.5660 ca         1 1U4      -0.029300
     22 C42         -3.1800    -4.0390    -1.9510 ca         1 1U4      -0.092500
     23 C50         -2.5020    -5.0220     0.1230 ca         1 1U4      -0.092500
     24 C44         -2.7570    -5.1710    -2.6330 ca         1 1U4      -0.121000
     25 C48         -2.0800    -6.1600    -0.5530 ca         1 1U4      -0.121000
     26 C46         -2.2040    -6.2380    -1.9350 ca         1 1U4      -0.137000
     27 N18         -3.1270     0.5950    -0.0490 ns         1 1U4      -0.450900
     28 C19         -3.8800     1.7920     0.2370 c3         1 1U4      -0.040300
     29 C33         -5.4090     1.5750     0.0870 c          1 1U4       0.713000
     30 O34         -5.8040     0.4440    -0.2430 o          1 1U4      -0.737500
     31 C20         -3.3810     2.9420    -0.6370 c3         1 1U4      -0.064400
     32 C21         -1.8790     3.2170    -0.5420 c3         1 1U4      -0.068700
     33 C26         -1.4950     4.3570    -1.4800 c3         1 1U4      -0.076600
     34 C22         -1.4340     3.5290     0.8820 c3         1 1U4      -0.076600
     35 O35         -6.1090     2.5810     0.3240 o          1 1U4      -0.737500
     36 H7           3.7230     3.2000    -1.1270 h1         1 1U4       0.049700
     37 H7A          3.7390     1.7280    -2.1050 h1         1 1U4       0.049700
     38 H4           5.7380     3.9970    -0.0710 ha         1 1U4       0.121000
     39 H2           8.1840     3.8440     0.1880 ha         1 1U4       0.101000
     40 H1           9.3910     1.8310    -0.6010 ha         1 1U4       0.096000
     41 H63          8.1330    -0.0210    -1.6560 ha         1 1U4       0.101000
     42 H61          5.6900     0.1380    -1.9210 ha         1 1U4       0.121000
     43 HN11         2.4770     0.1900     1.6080 hn         1 1U4       0.317500
     44 H12          0.0980     0.2470     2.2280 h1         1 1U4       0.066200
     45 H12A        -0.2540     0.6760     0.5660 h1         1 1U4       0.066200
     46 HN14        -1.5020    -2.2390     2.0450 hn         1 1U4       0.441000
     47 H15         -1.9580    -1.4940    -0.7430 h1         1 1U4       0.076700
     48 H38         -3.8360    -2.9500     1.1620 hc         1 1U4       0.061200
     49 H38A        -4.3300    -2.2380    -0.3640 hc         1 1U4       0.061200
     50 H42         -3.6140    -3.2120    -2.5020 ha         1 1U4       0.114000
     51 H50         -2.4000    -4.9690     1.1990 ha         1 1U4       0.114000
     52 H44         -2.8620    -5.2230    -3.7090 ha         1 1U4       0.089000
     53 H48         -1.6540    -6.9880    -0.0020 ha         1 1U4       0.089000
     54 H46         -1.8760    -7.1240    -2.4620 ha         1 1U4       0.083000
     55 HN18        -2.9510     0.3890    -1.0190 hn         1 1U4       0.299500
     56 H19         -3.6960     2.0490     1.2830 h1         1 1U4       0.062700
     57 H20         -3.6360     2.7360    -1.6840 hc         1 1U4       0.036700
     58 H20A        -3.9340     3.8420    -0.3590 hc         1 1U4       0.036700
     59 H21         -1.3370     2.3240    -0.8690 hc         1 1U4       0.071700
     60 H26         -1.9670     5.2950    -1.1760 hc         1 1U4       0.019367
     61 H26A        -0.4150     4.5140    -1.4810 hc         1 1U4       0.019367
     62 H26B        -1.8010     4.1510    -2.5080 hc         1 1U4       0.019367
     63 H22         -1.6000     2.6910     1.5600 hc         1 1U4       0.019367
     64 H22A        -0.3670     3.7540     0.9080 hc         1 1U4       0.019367
     65 H22B        -1.9700     4.3950     1.2800 hc         1 1U4       0.019367
@<TRIPOS>BOND
     1     1     2 2   
     2     1     3 1   
     3     1    11 1   
     4     3     4 1   
     5     4     5 1   
     6     4    36 1   
     7     4    37 1   
     8     5     6 ar  
     9     5    10 ar  
    10     6     7 ar  
    11     6    38 1   
    12     7     8 ar  
    13     7    39 1   
    14     8     9 ar  
    15     8    40 1   
    16     9    10 ar  
    17     9    41 1   
    18    10    42 1   
    19    11    12 1   
    20    11    43 1   
    21    12    13 1   
    22    12    44 1   
    23    12    45 1   
    24    13    14 1   
    25    13    15 1   
    26    13    16 1   
    27    16    17 1   
    28    16    46 1   
    29    17    18 1   
    30    17    20 1   
    31    17    47 1   
    32    18    19 2   
    33    18    27 1   
    34    20    21 1   
    35    20    48 1   
    36    20    49 1   
    37    21    22 ar  
    38    21    23 ar  
    39    22    24 ar  
    40    22    50 1   
    41    23    25 ar  
    42    23    51 1   
    43    24    26 ar  
    44    24    52 1   
    45    25    26 ar  
    46    25    53 1   
    47    26    54 1   
    48    27    28 1   
    49    27    55 1   
    50    28    29 1   
    51    28    31 1   
    52    28    56 1   
    53    29    30 1   
    54    29    35 1   
    55    31    32 1   
    56    31    57 1   
    57    31    58 1   
    58    32    33 1   
    59    32    34 1   
    60    32    59 1   
    61    33    60 1   
    62    33    61 1   
    63    33    62 1   
    64    34    63 1   
    65    34    64 1   
    66    34    65 1   
@<TRIPOS>SUBSTRUCTURE
     1 1U4         1 TEMP              0 ****  ****    0 ROOT
