@<TRIPOS>MOLECULE
1U5
   27    28     1     0     0
SMALL
No Charge or Current Charge


@<TRIPOS>ATOM
      1 C01          0.1200     0.8850     1.9220 c3         1 1U5      -0.066600
      2 C02          0.1850     0.8930     0.3600 c5         1 1U5      -0.050000
      3 C03         -0.1480     2.3610    -0.0730 c3         1 1U5      -0.066600
      4 C04          1.4990     0.2760    -0.2300 c5         1 1U5      -0.188000
      5 C05          2.8470     0.9150     0.1870 c3         1 1U5      -0.049100
      6 C06          1.2110     0.2830    -1.7740 c5         1 1U5      -0.077400
      7 C07         -0.3020    -0.1200    -1.8310 c5         1 1U5      -0.092400
      8 C08         -0.6550    -0.2570    -0.3060 c5         1 1U5       0.052000
      9 C09         -2.2060    -0.2030     0.0080 c          1 1U5       0.742000
     10 O10         -2.7040    -1.0620     0.7270 o          1 1U5      -0.703500
     11 O11         -2.9060     0.6370    -0.5460 o          1 1U5      -0.703500
     12 O12          0.0140    -1.4780     0.1440 os         1 1U5      -0.381100
     13 C13          1.3500    -1.2060     0.1910 c          1 1U5       0.653100
     14 O14          2.2080    -1.9990     0.5560 o          1 1U5      -0.558000
     15 H1           0.3430    -0.0960     2.3580 hc         1 1U5       0.034200
     16 H2           0.8330     1.5980     2.3510 hc         1 1U5       0.034200
     17 H3          -0.8780     1.1700     2.2760 hc         1 1U5       0.034200
     18 H4          -1.1170     2.6790     0.3290 hc         1 1U5       0.034200
     19 H5           0.6050     3.0600     0.3110 hc         1 1U5       0.034200
     20 H6          -0.1960     2.5100    -1.1560 hc         1 1U5       0.034200
     21 H7           2.8900     1.9730    -0.0990 hc         1 1U5       0.030033
     22 H8           3.0000     0.8540     1.2710 hc         1 1U5       0.030033
     23 H9           3.6890     0.4060    -0.2960 hc         1 1U5       0.030033
     24 H10          1.3920     1.2630    -2.2300 hc         1 1U5       0.035200
     25 H11          1.8450    -0.4320    -2.3110 hc         1 1U5       0.035200
     26 H12         -0.9030     0.6440    -2.3370 hc         1 1U5       0.061700
     27 H13         -0.4650    -1.0590    -2.3720 hc         1 1U5       0.061700
@<TRIPOS>BOND
     1     1     2 1   
     2     1    15 1   
     3     1    16 1   
     4     1    17 1   
     5     2     3 1   
     6     2     4 1   
     7     2     8 1   
     8     3    18 1   
     9     3    19 1   
    10     3    20 1   
    11     4     5 1   
    12     4     6 1   
    13     4    13 1   
    14     5    21 1   
    15     5    22 1   
    16     5    23 1   
    17     6     7 1   
    18     6    24 1   
    19     6    25 1   
    20     7     8 1   
    21     7    26 1   
    22     7    27 1   
    23     8     9 1   
    24     8    12 1   
    25     9    10 1   
    26     9    11 1   
    27    12    13 1   
    28    13    14 2   
@<TRIPOS>SUBSTRUCTURE
     1 1U5         1 TEMP              0 ****  ****    0 ROOT
