@<TRIPOS>MOLECULE
1U5
   27    28     1     0     0
SMALL
abcg2


@<TRIPOS>ATOM
      1 C01          0.1020     0.8640     1.8820 c3         1 1U5      -0.066600
      2 C02          0.1760     0.8940     0.3560 c5         1 1U5      -0.050000
      3 C03         -0.1270     2.3150    -0.1010 c3         1 1U5      -0.066600
      4 C04          1.4940     0.3060    -0.2140 c5         1 1U5      -0.188000
      5 C05          2.8130     0.9140     0.1870 c3         1 1U5      -0.049100
      6 C06          1.2050     0.2700    -1.7390 c5         1 1U5      -0.077400
      7 C07         -0.3010    -0.0700    -1.8090 c5         1 1U5      -0.092400
      8 C08         -0.6740    -0.2030    -0.3300 c5         1 1U5       0.052000
      9 C09         -2.1590    -0.2450     0.0300 c          1 1U5       0.742000
     10 O10         -2.5330    -1.1110     0.8360 o          1 1U5      -0.703500
     11 O11         -2.8460     0.6390    -0.5160 o          1 1U5      -0.703500
     12 O12          0.0040    -1.4120     0.1150 os         1 1U5      -0.381100
     13 C13          1.3040    -1.1360     0.1920 c          1 1U5       0.653100
     14 O14          2.1230    -1.9620     0.5060 o          1 1U5      -0.558000
     15 H1           0.3280    -0.1060     2.3240 hc         1 1U5       0.034200
     16 H2           0.8030     1.5840     2.3050 hc         1 1U5       0.034200
     17 H3          -0.8960     1.1490     2.2200 hc         1 1U5       0.034200
     18 H4          -1.1130     2.6200     0.2460 hc         1 1U5       0.034200
     19 H5           0.6030     3.0040     0.3280 hc         1 1U5       0.034200
     20 H6          -0.1070     2.4470    -1.1810 hc         1 1U5       0.034200
     21 H7           2.8560     1.9620    -0.1110 hc         1 1U5       0.030033
     22 H8           2.9700     0.8660     1.2650 hc         1 1U5       0.030033
     23 H9           3.6450     0.4000    -0.2950 hc         1 1U5       0.030033
     24 H10          1.4300     1.2450    -2.1750 hc         1 1U5       0.035200
     25 H11          1.8360    -0.4570    -2.2520 hc         1 1U5       0.035200
     26 H12         -0.8820     0.7150    -2.2880 hc         1 1U5       0.061700
     27 H13         -0.5030    -0.9970    -2.3470 hc         1 1U5       0.061700
@<TRIPOS>BOND
     1     1     2 1   
     2     1    15 1   
     3     1    16 1   
     4     1    17 1   
     5     2     3 1   
     6     2     4 1   
     7     2     8 1   
     8     3    18 1   
     9     3    19 1   
    10     3    20 1   
    11     4     5 1   
    12     4     6 1   
    13     4    13 1   
    14     5    21 1   
    15     5    22 1   
    16     5    23 1   
    17     6     7 1   
    18     6    24 1   
    19     6    25 1   
    20     7     8 1   
    21     7    26 1   
    22     7    27 1   
    23     8     9 1   
    24     8    12 1   
    25     9    10 1   
    26     9    11 1   
    27    12    13 1   
    28    13    14 2   
@<TRIPOS>SUBSTRUCTURE
     1 1U5         1 TEMP              0 ****  ****    0 ROOT
