@<TRIPOS>MOLECULE
1U6
   25    25     1     0     0
SMALL
No Charge or Current Charge


@<TRIPOS>ATOM
      1 C01          3.3320    -0.8950     0.6650 c3         1 1U6      -0.109600
      2 C02          2.2910    -0.7840    -0.4640 c3         1 1U6       0.094000
      3 N03          1.0910    -0.0030    -0.0590 n          1 1U6      -0.325400
      4 C04          1.0880     1.3760    -0.3360 c          1 1U6       0.570000
      5 O05          1.8090     1.9020    -1.1700 o          1 1U6      -0.492000
      6 C06          0.0760     2.1550     0.4160 c6         1 1U6      -0.267400
      7 C07         -1.1990     1.4900     0.0560 c          1 1U6       0.570000
      8 O08         -2.1120     2.1040    -0.4760 o          1 1U6      -0.492000
      9 N09         -1.2350     0.1050     0.2930 n          1 1U6      -0.325400
     10 C10         -2.5740    -0.5370     0.3650 c3         1 1U6       0.094000
     11 C11         -3.0420    -1.0990    -0.9920 c3         1 1U6      -0.109600
     12 C12         -0.0550    -0.6420     0.4410 cs         1 1U6       0.454400
     13 S13         -0.0610    -2.2600     0.8940 s          1 1U6      -0.528400
     14 H1           3.6830     0.1000     0.9650 hc         1 1U6       0.051033
     15 H2           2.9020    -1.3910     1.5430 hc         1 1U6       0.051033
     16 H3           4.1980    -1.4780     0.3290 hc         1 1U6       0.051033
     17 H4           2.7670    -0.3240    -1.3400 h1         1 1U6       0.080200
     18 H5           1.9930    -1.7920    -0.7810 h1         1 1U6       0.080200
     19 H6           0.2430     1.9040     1.4710 hc         1 1U6       0.120700
     20 H7           0.0900     3.2270     0.1890 hc         1 1U6       0.120700
     21 H8          -2.5690    -1.3420     1.1110 h1         1 1U6       0.080200
     22 H9          -3.3120     0.1970     0.7160 h1         1 1U6       0.080200
     23 H10         -3.1040    -0.3020    -1.7420 hc         1 1U6       0.051033
     24 H11         -2.3450    -1.8630    -1.3550 hc         1 1U6       0.051033
     25 H12         -4.0330    -1.5560    -0.8930 hc         1 1U6       0.051033
@<TRIPOS>BOND
     1     1     2 1   
     2     1    14 1   
     3     1    15 1   
     4     1    16 1   
     5     2     3 1   
     6     2    17 1   
     7     2    18 1   
     8     3     4 1   
     9     3    12 1   
    10     4     5 2   
    11     4     6 1   
    12     6     7 1   
    13     6    19 1   
    14     6    20 1   
    15     7     8 2   
    16     7     9 1   
    17     9    10 1   
    18     9    12 1   
    19    10    11 1   
    20    10    21 1   
    21    10    22 1   
    22    11    23 1   
    23    11    24 1   
    24    11    25 1   
    25    12    13 2   
@<TRIPOS>SUBSTRUCTURE
     1 1U6         1 TEMP              0 ****  ****    0 ROOT
