@<TRIPOS>MOLECULE
1U6
   25    25     1     0     0
SMALL
bcc


@<TRIPOS>ATOM
      1 C01          3.1430    -1.0480     0.8070 c3         1 1U6      -0.109600
      2 C02          2.4110    -0.6990    -0.4740 c3         1 1U6       0.094000
      3 N03          1.1580     0.0370    -0.2310 n          1 1U6      -0.459400
      4 C04          1.2670     1.4150    -0.1710 c          1 1U6       0.712500
      5 O05          2.3370     1.9680    -0.2620 o          1 1U6      -0.567500
      6 C06          0.0070     2.1940    -0.0180 c6         1 1U6      -0.267400
      7 C07         -1.2610     1.4300     0.1370 c          1 1U6       0.712500
      8 O08         -2.3260     1.9950     0.2110 o          1 1U6      -0.567500
      9 N09         -1.1670     0.0520     0.2200 n          1 1U6      -0.459400
     10 C10         -2.4280    -0.6670     0.4690 c3         1 1U6       0.094000
     11 C11         -3.1520    -1.0360    -0.8120 c3         1 1U6      -0.109600
     12 C12         -0.0070    -0.6580     0.0030 cs         1 1U6       0.588400
     13 S13         -0.0150    -2.3140     0.0210 s          1 1U6      -0.528400
     14 H1           3.4470    -0.1540     1.3510 hc         1 1U6       0.051033
     15 H2           2.5270    -1.6630     1.4630 hc         1 1U6       0.051033
     16 H3           4.0430    -1.6130     0.5640 hc         1 1U6       0.051033
     17 H4           3.0310    -0.0750    -1.1120 h1         1 1U6       0.080200
     18 H5           2.1620    -1.5930    -1.0360 h1         1 1U6       0.080200
     19 H6           0.1100     2.8540     0.8490 hc         1 1U6       0.120700
     20 H7          -0.0870     2.8550    -0.8830 hc         1 1U6       0.120700
     21 H8          -2.1920    -1.5520     1.0520 h1         1 1U6       0.080200
     22 H9          -3.0470    -0.0240     1.0880 h1         1 1U6       0.080200
     23 H10         -3.4440    -0.1510    -1.3760 hc         1 1U6       0.051033
     24 H11         -2.5370    -1.6700    -1.4490 hc         1 1U6       0.051033
     25 H12         -4.0590    -1.5880    -0.5650 hc         1 1U6       0.051033
@<TRIPOS>BOND
     1     1     2 1   
     2     1    14 1   
     3     1    15 1   
     4     1    16 1   
     5     2     3 1   
     6     2    17 1   
     7     2    18 1   
     8     3     4 1   
     9     3    12 1   
    10     4     5 2   
    11     4     6 1   
    12     6     7 1   
    13     6    19 1   
    14     6    20 1   
    15     7     8 2   
    16     7     9 1   
    17     9    10 1   
    18     9    12 1   
    19    10    11 1   
    20    10    21 1   
    21    10    22 1   
    22    11    23 1   
    23    11    24 1   
    24    11    25 1   
    25    12    13 2   
@<TRIPOS>SUBSTRUCTURE
     1 1U6         1 TEMP              0 ****  ****    0 ROOT
