@<TRIPOS>MOLECULE
1U7
   38    40     1     0     0
SMALL
bcc


@<TRIPOS>ATOM
      1 C01         -2.2840    -0.3610    -0.0070 c6         1 1U7       0.164500
      2 C02         -3.3300     0.6920     0.3410 c6         1 1U7      -0.072400
      3 C03         -3.2230     1.9180    -0.5580 c6         1 1U7      -0.074400
      4 C04         -1.8200     2.5110    -0.5120 c6         1 1U7      -0.077400
      5 C05         -0.7710     1.4630    -0.8700 c6         1 1U7      -0.064400
      6 C06         -0.8730     0.2490     0.0530 c6         1 1U7      -0.072700
      7 C07          0.2120    -0.8150    -0.2160 c6         1 1U7       0.213100
      8 O08          0.0560    -1.2180    -1.5620 oh         1 1U7      -0.589800
      9 C09          1.5960    -0.2200     0.0190 ca         1 1U7      -0.109300
     10 C10          1.9880     0.1770     1.2990 ca         1 1U7      -0.120000
     11 C11          3.2390     0.7330     1.5260 ca         1 1U7      -0.129500
     12 C12          4.1290     0.9060     0.4740 ca         1 1U7      -0.126000
     13 C13          3.7510     0.5200    -0.8030 ca         1 1U7      -0.129500
     14 C14          2.4960    -0.0360    -1.0270 ca         1 1U7      -0.120000
     15 C15         -0.0180    -2.0220     0.7080 c6         1 1U7      -0.144400
     16 C16         -1.4480    -2.5430     0.6000 c6         1 1U7       0.156800
     17 N17         -2.4530    -1.5250     0.8500 n7         1 1U7      -0.789200
     18 H1          -2.4690    -0.6930    -1.0370 h1         1 1U7       0.076700
     19 H2          -4.3270     0.2480     0.2700 hc         1 1U7       0.043200
     20 H3          -3.1950     0.9980     1.3870 hc         1 1U7       0.043200
     21 H4          -3.4610     1.6340    -1.5880 hc         1 1U7       0.040700
     22 H5          -3.9640     2.6660    -0.2630 hc         1 1U7       0.040700
     23 H6          -1.7470     3.3620    -1.1940 hc         1 1U7       0.037700
     24 H7          -1.6210     2.8980     0.4930 hc         1 1U7       0.037700
     25 H8          -0.9180     1.1510    -1.9090 hc         1 1U7       0.051200
     26 H9           0.2290     1.8980    -0.8120 hc         1 1U7       0.051200
     27 H10         -0.7210     0.5990     1.0840 hc         1 1U7       0.045700
     28 H11          0.5850    -2.0100    -1.7100 ho         1 1U7       0.403000
     29 H12          1.3130     0.0610     2.1380 ha         1 1U7       0.133000
     30 H13          3.5180     1.0300     2.5290 ha         1 1U7       0.130500
     31 H14          5.1050     1.3410     0.6500 ha         1 1U7       0.131000
     32 H15          4.4310     0.6530    -1.6350 ha         1 1U7       0.130500
     33 H16          2.2180    -0.3120    -2.0350 ha         1 1U7       0.133000
     34 H17          0.7000    -2.8130     0.4640 hc         1 1U7       0.050200
     35 H18          0.1780    -1.7420     1.7460 hc         1 1U7       0.050200
     36 H19         -1.6200    -2.9600    -0.3970 h1         1 1U7       0.055200
     37 H20         -1.5940    -3.3630     1.3060 h1         1 1U7       0.055200
     38 H21         -2.3820    -1.2270     1.8180 hn         1 1U7       0.342800
@<TRIPOS>BOND
     1     1     2 1   
     2     1     6 1   
     3     1    17 1   
     4     1    18 1   
     5     2     3 1   
     6     2    19 1   
     7     2    20 1   
     8     3     4 1   
     9     3    21 1   
    10     3    22 1   
    11     4     5 1   
    12     4    23 1   
    13     4    24 1   
    14     5     6 1   
    15     5    25 1   
    16     5    26 1   
    17     6     7 1   
    18     6    27 1   
    19     7     8 1   
    20     7     9 1   
    21     7    15 1   
    22     8    28 1   
    23     9    10 ar  
    24     9    14 ar  
    25    10    11 ar  
    26    10    29 1   
    27    11    12 ar  
    28    11    30 1   
    29    12    13 ar  
    30    12    31 1   
    31    13    14 ar  
    32    13    32 1   
    33    14    33 1   
    34    15    16 1   
    35    15    34 1   
    36    15    35 1   
    37    16    17 1   
    38    16    36 1   
    39    16    37 1   
    40    17    38 1   
@<TRIPOS>SUBSTRUCTURE
     1 1U7         1 TEMP              0 ****  ****    0 ROOT
