@<TRIPOS>MOLECULE
1U7
   38    40     1     0     0
SMALL
No Charge or Current Charge


@<TRIPOS>ATOM
      1 C01         -2.3280    -0.3630    -0.0000 c6         1 1U7       0.164500
      2 C02         -3.4110     0.6970     0.3350 c6         1 1U7      -0.072400
      3 C03         -3.2940     1.9350    -0.5870 c6         1 1U7      -0.074400
      4 C04         -1.8780     2.5550    -0.5100 c6         1 1U7      -0.077400
      5 C05         -0.7880     1.5080    -0.8440 c6         1 1U7      -0.064400
      6 C06         -0.8960     0.2560     0.0820 c6         1 1U7      -0.072700
      7 C07          0.2050    -0.8210    -0.2190 c6         1 1U7       0.236300
      8 O08          0.0710    -1.2800    -1.5710 oh         1 1U7      -0.652000
      9 C09          1.6300    -0.2320     0.0050 ca         1 1U7      -0.109300
     10 C10          2.0280     0.1790     1.3010 ca         1 1U7      -0.102000
     11 C11          3.3020     0.7250     1.5280 ca         1 1U7      -0.111500
     12 C12          4.2030     0.8790     0.4650 ca         1 1U7      -0.108000
     13 C13          3.8240     0.4910    -0.8290 ca         1 1U7      -0.111500
     14 C14          2.5500    -0.0560    -1.0600 ca         1 1U7      -0.102000
     15 C15         -0.0310    -2.0500     0.7090 c6         1 1U7      -0.144400
     16 C16         -1.4760    -2.5930     0.6070 c6         1 1U7       0.156800
     17 N17         -2.4570    -1.5280     0.9090 n7         1 1U7      -0.844400
     18 H1          -2.5000    -0.7030    -1.0350 h1         1 1U7       0.076700
     19 H2          -4.4110     0.2550     0.2280 hc         1 1U7       0.043200
     20 H3          -3.3170     1.0110     1.3840 hc         1 1U7       0.043200
     21 H4          -3.5160     1.6470    -1.6240 hc         1 1U7       0.040700
     22 H5          -4.0450     2.6840    -0.3030 hc         1 1U7       0.040700
     23 H6          -1.8050     3.4040    -1.2040 hc         1 1U7       0.037700
     24 H7          -1.7060     2.9610     0.4970 hc         1 1U7       0.037700
     25 H8          -0.8830     1.2110    -1.8970 hc         1 1U7       0.051200
     26 H9           0.2010     1.9740    -0.7420 hc         1 1U7       0.051200
     27 H10         -0.7510     0.6040     1.1140 hc         1 1U7       0.045700
     28 H11          0.7700    -1.9540    -1.6960 ho         1 1U7       0.442000
     29 H12          1.3480     0.0850     2.1430 ha         1 1U7       0.115000
     30 H13          3.5900     1.0330     2.5310 ha         1 1U7       0.112500
     31 H14          5.1900     1.3030     0.6410 ha         1 1U7       0.113000
     32 H15          4.5180     0.6180    -1.6570 ha         1 1U7       0.112500
     33 H16          2.2920    -0.3280    -2.0800 ha         1 1U7       0.115000
     34 H17          0.6800    -2.8500     0.4640 hc         1 1U7       0.050200
     35 H18          0.1620    -1.7870     1.7560 hc         1 1U7       0.050200
     36 H19         -1.6580    -2.9890    -0.4040 h1         1 1U7       0.055200
     37 H20         -1.6060    -3.4260     1.3130 h1         1 1U7       0.055200
     38 H21         -2.3020    -1.2050     1.8700 hn         1 1U7       0.398000
@<TRIPOS>BOND
     1     1     2 1   
     2     1     6 1   
     3     1    17 1   
     4     1    18 1   
     5     2     3 1   
     6     2    19 1   
     7     2    20 1   
     8     3     4 1   
     9     3    21 1   
    10     3    22 1   
    11     4     5 1   
    12     4    23 1   
    13     4    24 1   
    14     5     6 1   
    15     5    25 1   
    16     5    26 1   
    17     6     7 1   
    18     6    27 1   
    19     7     8 1   
    20     7     9 1   
    21     7    15 1   
    22     8    28 1   
    23     9    10 ar  
    24     9    14 ar  
    25    10    11 ar  
    26    10    29 1   
    27    11    12 ar  
    28    11    30 1   
    29    12    13 ar  
    30    12    31 1   
    31    13    14 ar  
    32    13    32 1   
    33    14    33 1   
    34    15    16 1   
    35    15    34 1   
    36    15    35 1   
    37    16    17 1   
    38    16    36 1   
    39    16    37 1   
    40    17    38 1   
@<TRIPOS>SUBSTRUCTURE
     1 1U7         1 TEMP              0 ****  ****    0 ROOT
