@<TRIPOS>MOLECULE
1U9
   44    46     1     0     0
SMALL
abcg2


@<TRIPOS>ATOM
      1 O            8.2170    -2.2610     0.7100 oh         1 1U9      -0.663000
      2 C16          7.1840    -1.3160     0.8740 c3         1 1U9       0.163600
      3 C15          6.7070    -0.8730    -0.5020 c3         1 1U9      -0.036100
      4 C14          5.6000     0.1360    -0.3840 ca         1 1U9      -0.083300
      5 C13          5.8800     1.4930    -0.2510 ca         1 1U9      -0.100000
      6 C12          4.8480     2.4120    -0.1020 ca         1 1U9      -0.111000
      7 C11          3.5290     1.9930    -0.0840 ca         1 1U9      -0.096000
      8 C17          4.2710    -0.2720    -0.3610 ca         1 1U9      -0.095000
      9 C10          3.2180     0.6350    -0.2140 ca         1 1U9      -0.054800
     10 C9           1.8510     0.1170    -0.2090 ce         1 1U9      -0.142200
     11 C8           0.7280     0.8420    -0.1100 cf         1 1U9      -0.157200
     12 C7          -0.6350     0.3210    -0.1120 ca         1 1U9      -0.039800
     13 C6          -1.6870     1.2020     0.0130 ca         1 1U9      -0.092000
     14 C18         -0.9270    -1.0650    -0.2400 ca         1 1U9      -0.097000
     15 C19         -2.2130    -1.5180    -0.2440 ca         1 1U9      -0.095000
     16 C20         -3.3030    -0.6210    -0.1210 ca         1 1U9      -0.040000
     17 C5          -3.0280     0.7620     0.0160 ca         1 1U9      -0.027000
     18 C4          -4.1130     1.6590     0.1500 ca         1 1U9      -0.100000
     19 C3          -5.4020     1.2020     0.1540 ca         1 1U9      -0.088000
     20 C21         -4.6400    -1.0630    -0.1300 ca         1 1U9      -0.076000
     21 C2          -5.6810    -0.1770     0.0040 ca         1 1U9      -0.192900
     22 C1          -7.0860    -0.6730    -0.0230 ce         1 1U9       0.660800
     23 N2          -7.9500     0.0100     0.7780 nv         1 1U9      -1.031200
     24 N1          -7.5020    -1.6330    -0.7580 n2         1 1U9      -0.844100
     25 H16          8.5250    -2.5220     1.5830 ho         1 1U9       0.444000
     26 H14          6.3350    -1.7360     1.4290 h1         1 1U9       0.020200
     27 H15          7.5260    -0.4370     1.4350 h1         1 1U9       0.020200
     28 H13          7.5470    -0.4450    -1.0550 hc         1 1U9       0.061200
     29 H12          6.3600    -1.7450    -1.0620 hc         1 1U9       0.061200
     30 H11          6.9090     1.8360    -0.2670 ha         1 1U9       0.114000
     31 H10          5.0750     3.4660    -0.0040 ha         1 1U9       0.114000
     32 H9           2.7450     2.7300     0.0290 ha         1 1U9       0.112000
     33 H17          4.0440    -1.3280    -0.4670 ha         1 1U9       0.112000
     34 H8           1.7800    -0.9620    -0.2970 ha         1 1U9       0.172000
     35 H7           0.7970     1.9220    -0.0220 ha         1 1U9       0.173000
     36 H6          -1.4910     2.2640     0.1130 ha         1 1U9       0.115000
     37 H18         -0.1230    -1.7820    -0.3360 ha         1 1U9       0.115000
     38 H19         -2.4120    -2.5780    -0.3450 ha         1 1U9       0.116000
     39 H5          -3.9150     2.7190     0.2490 ha         1 1U9       0.117000
     40 H4          -6.2170     1.9080     0.2490 ha         1 1U9       0.125000
     41 H20         -4.8320    -2.1260    -0.2260 ha         1 1U9       0.119000
     42 H3          -7.5920     0.4310     1.6200 hn         1 1U9       0.468500
     43 H2          -8.8720    -0.3860     0.8770 hn         1 1U9       0.468500
     44 H1          -6.7630    -1.9600    -1.3710 hn         1 1U9       0.388400
@<TRIPOS>BOND
     1     1     2 1   
     2     1    25 1   
     3     2     3 1   
     4     2    26 1   
     5     2    27 1   
     6     3     4 1   
     7     3    28 1   
     8     3    29 1   
     9     4     5 ar  
    10     4     8 ar  
    11     5     6 ar  
    12     5    30 1   
    13     6     7 ar  
    14     6    31 1   
    15     7     9 ar  
    16     7    32 1   
    17     8     9 ar  
    18     8    33 1   
    19     9    10 1   
    20    10    11 2   
    21    10    34 1   
    22    11    12 1   
    23    11    35 1   
    24    12    13 ar  
    25    12    14 ar  
    26    13    17 ar  
    27    13    36 1   
    28    14    15 ar  
    29    14    37 1   
    30    15    16 ar  
    31    15    38 1   
    32    16    17 ar  
    33    16    20 ar  
    34    17    18 ar  
    35    18    19 ar  
    36    18    39 1   
    37    19    21 ar  
    38    19    40 1   
    39    20    21 ar  
    40    20    41 1   
    41    21    22 1   
    42    22    23 1   
    43    22    24 2   
    44    23    42 1   
    45    23    43 1   
    46    24    44 1   
@<TRIPOS>SUBSTRUCTURE
     1 1U9         1 TEMP              0 ****  ****    0 ROOT
