@<TRIPOS>MOLECULE
1U9
   44    46     1     0     0
SMALL
No Charge or Current Charge


@<TRIPOS>ATOM
      1 O            8.3020    -2.3010     0.8530 oh         1 1U9      -0.663000
      2 C16          7.2230    -1.3650     0.9670 c3         1 1U9       0.163600
      3 C15          6.8390    -0.8320    -0.4270 c3         1 1U9      -0.036100
      4 C14          5.6930     0.1710    -0.3610 ca         1 1U9      -0.083300
      5 C13          5.9600     1.5500    -0.2810 ca         1 1U9      -0.100000
      6 C12          4.9010     2.4690    -0.2160 ca         1 1U9      -0.111000
      7 C11          3.5700     2.0170    -0.2280 ca         1 1U9      -0.096000
      8 C17          4.3570    -0.2770    -0.3710 ca         1 1U9      -0.095000
      9 C10          3.2860     0.6370    -0.3040 ca         1 1U9      -0.054800
     10 C9           1.8850     0.1190    -0.3190 ce         1 1U9      -0.142200
     11 C8           0.7120     0.7960    -0.1470 cf         1 1U9      -0.157200
     12 C7          -0.6780     0.2920    -0.1600 ca         1 1U9      -0.039800
     13 C6          -1.7400     1.1950     0.0510 ca         1 1U9      -0.092000
     14 C18         -0.9770    -1.0710    -0.3770 ca         1 1U9      -0.097000
     15 C19         -2.3100    -1.5180    -0.3840 ca         1 1U9      -0.095000
     16 C20         -3.3640    -0.6110    -0.1720 ca         1 1U9      -0.040000
     17 C5          -3.0750     0.7500     0.0470 ca         1 1U9      -0.027000
     18 C4          -4.1280     1.6590     0.2530 ca         1 1U9      -0.100000
     19 C3          -5.4600     1.2130     0.2490 ca         1 1U9      -0.088000
     20 C21         -4.6990    -1.0570    -0.1780 ca         1 1U9      -0.076000
     21 C2          -5.7660    -0.1550     0.0500 ca         1 1U9      -0.192900
     22 C1          -7.1860    -0.6230     0.0040 ce         1 1U9       0.660800
     23 N2          -8.0860     0.0210     0.7680 nv         1 1U9      -1.031200
     24 N1          -7.5580    -1.6740    -0.5990 n2         1 1U9      -0.844100
     25 H16          8.5100    -2.6100     1.7640 ho         1 1U9       0.444000
     26 H14          6.3480    -1.8470     1.4240 h1         1 1U9       0.020200
     27 H15          7.5170    -0.5220     1.6070 h1         1 1U9       0.020200
     28 H13          7.7200    -0.3700    -0.8890 hc         1 1U9       0.061200
     29 H12          6.5620    -1.6760    -1.0690 hc         1 1U9       0.061200
     30 H11          6.9860     1.9100    -0.2680 ha         1 1U9       0.114000
     31 H10          5.1110     3.5350    -0.1570 ha         1 1U9       0.114000
     32 H9           2.7710     2.7510    -0.1830 ha         1 1U9       0.112000
     33 H17          4.1540    -1.3440    -0.4290 ha         1 1U9       0.112000
     34 H8           1.8310    -0.9560    -0.4890 ha         1 1U9       0.172000
     35 H7           0.7770     1.8690     0.0310 ha         1 1U9       0.173000
     36 H6          -1.5280     2.2480     0.2190 ha         1 1U9       0.115000
     37 H18         -0.1860    -1.7950    -0.5440 ha         1 1U9       0.115000
     38 H19         -2.5200    -2.5720    -0.5530 ha         1 1U9       0.116000
     39 H5          -3.9160     2.7140     0.4120 ha         1 1U9       0.117000
     40 H4          -6.2560     1.9420     0.3900 ha         1 1U9       0.125000
     41 H20         -4.9000    -2.1140    -0.3420 ha         1 1U9       0.119000
     42 H3          -7.6960     0.5290     1.5530 hn         1 1U9       0.468500
     43 H2          -8.9240    -0.5140     0.9590 hn         1 1U9       0.468500
     44 H1          -6.7680    -2.0030    -1.1690 hn         1 1U9       0.388400
@<TRIPOS>BOND
     1     1     2 1   
     2     1    25 1   
     3     2     3 1   
     4     2    26 1   
     5     2    27 1   
     6     3     4 1   
     7     3    28 1   
     8     3    29 1   
     9     4     5 ar  
    10     4     8 ar  
    11     5     6 ar  
    12     5    30 1   
    13     6     7 ar  
    14     6    31 1   
    15     7     9 ar  
    16     7    32 1   
    17     8     9 ar  
    18     8    33 1   
    19     9    10 1   
    20    10    11 2   
    21    10    34 1   
    22    11    12 1   
    23    11    35 1   
    24    12    13 ar  
    25    12    14 ar  
    26    13    17 ar  
    27    13    36 1   
    28    14    15 ar  
    29    14    37 1   
    30    15    16 ar  
    31    15    38 1   
    32    16    17 ar  
    33    16    20 ar  
    34    17    18 ar  
    35    18    19 ar  
    36    18    39 1   
    37    19    21 ar  
    38    19    40 1   
    39    20    21 ar  
    40    20    41 1   
    41    21    22 1   
    42    22    23 1   
    43    22    24 2   
    44    23    42 1   
    45    23    43 1   
    46    24    44 1   
@<TRIPOS>SUBSTRUCTURE
     1 1U9         1 TEMP              0 ****  ****    0 ROOT
