@<TRIPOS>MOLECULE
1UA
   35    37     1     0     0
SMALL
bcc


@<TRIPOS>ATOM
      1 O17          4.1740     2.3750     0.0500 o          1 1UA      -0.616500
      2 C6           3.4640     1.3810     0.0280 c          1 1UA       0.721700
      3 C5           3.8740     0.0160    -0.0340 cc         1 1UA      -0.274400
      4 C4           2.9390    -0.9700    -0.0670 cd         1 1UA       0.181400
      5 C2           3.5790    -2.3190    -0.1730 c5         1 1UA      -0.037200
      6 C3           5.2660    -0.5270    -0.1120 c5         1 1UA      -0.009200
      7 C1           5.0500    -2.0290     0.1720 c5         1 1UA      -0.082400
      8 N19          2.0710     1.5030     0.0700 ns         1 1UA      -0.466400
      9 C7           1.2140     0.4570     0.0280 cc         1 1UA       0.519800
     10 N18          1.5970    -0.7780    -0.0430 nd         1 1UA      -0.654300
     11 S16         -0.4820     0.8810     0.0750 ss         1 1UA      -0.216300
     12 C8          -1.2670    -0.7660     0.0190 c3         1 1UA       0.081000
     13 C9          -2.7490    -0.5430     0.0260 ca         1 1UA      -0.103300
     14 C11         -3.4490    -0.4550     1.2250 ca         1 1UA      -0.103000
     15 C13         -4.8190    -0.2350     1.2270 ca         1 1UA      -0.131000
     16 C14         -5.5260    -0.0920     0.0350 ca         1 1UA      -0.060300
     17 C15         -7.0030     0.1730     0.0370 c3         1 1UA      -0.050800
     18 C12         -4.8180    -0.1800    -1.1620 ca         1 1UA      -0.131000
     19 C10         -3.4490    -0.3990    -1.1680 ca         1 1UA      -0.103000
     20 H1           3.1160    -3.0530     0.4880 hc         1 1UA       0.066200
     21 H2           5.6910    -0.3590    -1.1060 hc         1 1UA       0.059700
     22 H3           5.9460    -0.0640     0.6040 hc         1 1UA       0.059700
     23 H4           5.2140    -2.2200     1.2340 hc         1 1UA       0.049200
     24 H5           1.7050     2.4460     0.1280 hn         1 1UA       0.338500
     25 H6          -0.9360    -1.2750    -0.8840 h1         1 1UA       0.088200
     26 H7          -0.9350    -1.3360     0.8850 h1         1 1UA       0.088200
     27 H8          -2.9220    -0.5700     2.1650 ha         1 1UA       0.135000
     28 H9          -5.3470    -0.1780     2.1720 ha         1 1UA       0.133000
     29 H10         -7.2060     1.2440    -0.0410 hc         1 1UA       0.045033
     30 H11         -7.4970    -0.3100    -0.8050 hc         1 1UA       0.045033
     31 H12         -7.4730    -0.1810     0.9540 hc         1 1UA       0.045033
     32 H13         -5.3440    -0.0790    -2.1030 ha         1 1UA       0.133000
     33 H14         -2.9200    -0.4680    -2.1120 ha         1 1UA       0.135000
     34 H15          3.4610    -2.6950    -1.1950 hc         1 1UA       0.066200
     35 H16          5.7420    -2.6610    -0.3820 hc         1 1UA       0.049200
@<TRIPOS>BOND
     1     1     2 2   
     2     2     3 1   
     3     2     8 1   
     4     3     4 2   
     5     3     6 1   
     6     4     5 1   
     7     4    10 1   
     8     5     7 1   
     9     5    20 1   
    10     5    34 1   
    11     6     7 1   
    12     6    21 1   
    13     6    22 1   
    14     7    23 1   
    15     7    35 1   
    16     8     9 1   
    17     8    24 1   
    18     9    10 2   
    19     9    11 1   
    20    11    12 1   
    21    12    13 1   
    22    12    25 1   
    23    12    26 1   
    24    13    14 ar  
    25    13    19 ar  
    26    14    15 ar  
    27    14    27 1   
    28    15    16 ar  
    29    15    28 1   
    30    16    17 1   
    31    16    18 ar  
    32    17    29 1   
    33    17    30 1   
    34    17    31 1   
    35    18    19 ar  
    36    18    32 1   
    37    19    33 1   
@<TRIPOS>SUBSTRUCTURE
     1 1UA         1 TEMP              0 ****  ****    0 ROOT
