@<TRIPOS>MOLECULE
1UA
   35    37     1     0     0
SMALL
No Charge or Current Charge


@<TRIPOS>ATOM
      1 O17          4.3600     2.3220     0.0390 o          1 1UA      -0.541000
      2 C6           3.5560     1.4040     0.0070 c          1 1UA       0.579200
      3 C5           3.9000    -0.0120    -0.0620 cc         1 1UA      -0.274400
      4 C4           2.9360    -0.9810    -0.0950 cd         1 1UA       0.181400
      5 C2           3.5820    -2.3410    -0.1750 c5         1 1UA      -0.037200
      6 C3           5.2820    -0.5940    -0.1020 c5         1 1UA      -0.009200
      7 C1           5.0670    -2.0960     0.2590 c5         1 1UA      -0.082400
      8 N19          2.2220     1.6050     0.0330 ns         1 1UA      -0.399400
      9 C7           1.2900     0.6100    -0.0020 cc         1 1UA       0.519800
     10 N18          1.5760    -0.6890    -0.0670 nd         1 1UA      -0.654300
     11 S16         -0.4230     1.0110     0.0370 ss         1 1UA      -0.264200
     12 C8          -1.2660    -0.6370    -0.0280 c3         1 1UA       0.128900
     13 C9          -2.7780    -0.4620    -0.0010 ca         1 1UA      -0.103300
     14 C11         -3.4680    -0.4330     1.2250 ca         1 1UA      -0.085000
     15 C13         -4.8640    -0.2690     1.2500 ca         1 1UA      -0.113000
     16 C14         -5.5850    -0.1340     0.0490 ca         1 1UA      -0.060300
     17 C15         -7.0950     0.0460     0.0760 c3         1 1UA      -0.050800
     18 C12         -4.8950    -0.1590    -1.1770 ca         1 1UA      -0.113000
     19 C10         -3.4980    -0.3220    -1.2030 ca         1 1UA      -0.085000
     20 H1           3.0890    -3.0770     0.4700 hc         1 1UA       0.066200
     21 H2           5.7160    -0.4850    -1.1030 hc         1 1UA       0.059700
     22 H3           5.9630    -0.1000     0.6010 hc         1 1UA       0.059700
     23 H4           5.1810    -2.2500     1.3390 hc         1 1UA       0.049200
     24 H5           1.9130     2.5640     0.0810 hn         1 1UA       0.338500
     25 H6          -0.9670    -1.1610    -0.9450 h1         1 1UA       0.088200
     26 H7          -0.9450    -1.2420     0.8300 h1         1 1UA       0.088200
     27 H8          -2.9230    -0.5340     2.1620 ha         1 1UA       0.117000
     28 H9          -5.3850    -0.2470     2.2040 ha         1 1UA       0.115000
     29 H10         -7.3600     1.1090     0.1270 hc         1 1UA       0.045033
     30 H11         -7.5650    -0.3730    -0.8230 hc         1 1UA       0.045033
     31 H12         -7.5430    -0.4530     0.9430 hc         1 1UA       0.045033
     32 H13         -5.4390    -0.0500    -2.1130 ha         1 1UA       0.115000
     33 H14         -2.9770    -0.3370    -2.1580 ha         1 1UA       0.117000
     34 H15          3.5320    -2.7330    -1.1970 hc         1 1UA       0.066200
     35 H16          5.7770    -2.7630    -0.2430 hc         1 1UA       0.049200
@<TRIPOS>BOND
     1     1     2 2   
     2     2     3 1   
     3     2     8 1   
     4     3     4 2   
     5     3     6 1   
     6     4     5 1   
     7     4    10 1   
     8     5     7 1   
     9     5    20 1   
    10     5    34 1   
    11     6     7 1   
    12     6    21 1   
    13     6    22 1   
    14     7    23 1   
    15     7    35 1   
    16     8     9 1   
    17     8    24 1   
    18     9    10 2   
    19     9    11 1   
    20    11    12 1   
    21    12    13 1   
    22    12    25 1   
    23    12    26 1   
    24    13    14 ar  
    25    13    19 ar  
    26    14    15 ar  
    27    14    27 1   
    28    15    16 ar  
    29    15    28 1   
    30    16    17 1   
    31    16    18 ar  
    32    17    29 1   
    33    17    30 1   
    34    17    31 1   
    35    18    19 ar  
    36    18    32 1   
    37    19    33 1   
@<TRIPOS>SUBSTRUCTURE
     1 1UA         1 TEMP              0 ****  ****    0 ROOT
