@<TRIPOS>MOLECULE
1UC
   18    17     1     0     0
SMALL
No Charge or Current Charge


@<TRIPOS>ATOM
      1 O3           0.8310    -1.9820     0.6620 o          1 1UC      -0.743500
      2 C6           0.1350    -1.4070    -0.1600 c          1 1UC       0.746200
      3 O4          -0.6480    -2.0050    -0.8840 o          1 1UC      -0.743500
      4 C2           0.0780     0.0950    -0.1220 ce         1 1UC      -0.341200
      5 C            1.2170     0.8500     0.0870 cf         1 1UC       0.170800
      6 C1           2.6930     0.3240     0.0500 c          1 1UC       0.750200
      7 O1           2.9820    -0.6820    -0.5920 o          1 1UC      -0.716000
      8 O            3.5680     1.0490     0.5190 o          1 1UC      -0.716000
      9 N            1.0030     2.2030     0.3230 nv         1 1UC      -0.970000
     10 C3          -1.2550     0.7280    -0.2840 ce         1 1UC       0.032000
     11 C4          -2.4380     0.2210     0.1540 cf         1 1UC      -0.480200
     12 C5          -3.7330     0.9010    -0.0280 c          1 1UC       0.577100
     13 O2          -4.7840     0.4250     0.3800 o          1 1UC      -0.677100
     14 H5           0.0710     2.5570     0.5160 hn         1 1UC       0.450500
     15 H6           1.7880     2.8010     0.5790 hn         1 1UC       0.450500
     16 H8          -1.2830     1.6980    -0.7840 ha         1 1UC       0.076000
     17 H10         -2.4670    -0.7360     0.6720 ha         1 1UC       0.228000
     18 H12         -3.7100     1.8790    -0.5570 h4         1 1UC      -0.094800
@<TRIPOS>BOND
     1     1     2 1   
     2     2     3 1   
     3     2     4 1   
     4     4     5 2   
     5     4    10 1   
     6     5     6 1   
     7     5     9 1   
     8     6     7 1   
     9     6     8 1   
    10     9    14 1   
    11     9    15 1   
    12    10    11 2   
    13    10    16 1   
    14    11    12 1   
    15    11    17 1   
    16    12    13 2   
    17    12    18 1   
@<TRIPOS>SUBSTRUCTURE
     1 1UC         1 TEMP              0 ****  ****    0 ROOT
