@<TRIPOS>MOLECULE
1UC
   18    17     1     0     0
SMALL
bcc


@<TRIPOS>ATOM
      1 O3           1.1940    -1.7580     0.9010 o          1 1UC      -0.848800
      2 C6           0.2070    -1.4090     0.2190 c          1 1UC       0.956800
      3 O4          -0.6350    -2.1810    -0.2870 o          1 1UC      -0.848800
      4 C2          -0.0040     0.0800     0.0550 ce         1 1UC      -0.341200
      5 C            1.1210     0.9000     0.0680 cf         1 1UC       0.170800
      6 C1           2.5470     0.3500    -0.0740 c          1 1UC       0.960800
      7 O1           2.7590    -0.2640    -1.1290 o          1 1UC      -0.821300
      8 O            3.3480     0.6840     0.8140 o          1 1UC      -0.821300
      9 N            1.1050     2.2320     0.1050 nv         1 1UC      -0.859600
     10 C3          -1.2960     0.6460    -0.0330 ce         1 1UC       0.082000
     11 C4          -2.5300     0.0530    -0.0350 cf         1 1UC      -0.430200
     12 C5          -3.6900     0.8840    -0.1040 c          1 1UC       0.577100
     13 O2          -4.8570     0.5060    -0.1190 o          1 1UC      -0.677100
     14 H5           0.2690     2.7720     0.2490 hn         1 1UC       0.395300
     15 H6           1.9690     2.7420     0.1670 hn         1 1UC       0.395300
     16 H8          -1.3430     1.7330    -0.1050 ha         1 1UC       0.026000
     17 H10         -2.6470    -1.0200     0.0150 ha         1 1UC       0.178000
     18 H12         -3.4680     1.9700    -0.1770 h4         1 1UC      -0.094800
@<TRIPOS>BOND
     1     1     2 1   
     2     2     3 1   
     3     2     4 1   
     4     4     5 2   
     5     4    10 1   
     6     5     6 1   
     7     5     9 1   
     8     6     7 1   
     9     6     8 1   
    10     9    14 1   
    11     9    15 1   
    12    10    11 2   
    13    10    16 1   
    14    11    12 1   
    15    11    17 1   
    16    12    13 2   
    17    12    18 1   
@<TRIPOS>SUBSTRUCTURE
     1 1UC         1 TEMP              0 ****  ****    0 ROOT
