@<TRIPOS>MOLECULE
1UD
   53    56     1     0     0
SMALL
No Charge or Current Charge


@<TRIPOS>ATOM
      1 C1           3.6180    -0.7660    -0.0920 ca         1 1UD      -0.228600
      2 C2           4.0170     0.5550    -0.3850 ca         1 1UD      -0.029000
      3 C3           3.0760     1.5690    -0.2160 ca         1 1UD      -0.117200
      4 C4           1.8020     1.3300     0.2200 ca         1 1UD       0.162400
      5 C5           1.3770     0.0210     0.5260 ca         1 1UD      -0.060300
      6 C6          -0.0610    -0.2190     1.0070 c3         1 1UD      -0.004100
      7 C7          -1.0140    -0.5690    -0.1590 c3         1 1UD      -0.063400
      8 C8           2.3020    -1.0540     0.3640 ca         1 1UD       0.215400
      9 N9           1.8700    -2.3670     0.6610 nc         1 1UD      -0.701100
     10 C10          2.8060    -3.2610     0.4730 cd         1 1UD       0.702800
     11 N11          2.4410    -4.5020     0.7490 nv         1 1UD      -1.032200
     12 N12          4.0640    -3.0910     0.0530 ns         1 1UD      -0.453400
     13 C13          4.5770    -1.8880    -0.2610 c          1 1UD       0.593600
     14 O14          5.7270    -1.7570    -0.6490 o          1 1UD      -0.554000
     15 N15          3.2180     2.9120    -0.4390 na         1 1UD      -0.358600
     16 N16          1.0720     2.5120     0.2940 nc         1 1UD      -0.663100
     17 C17          1.9680     3.4050    -0.1090 cd         1 1UD       0.686700
     18 N18          1.6270     4.7020    -0.1730 nu         1 1UD      -0.914400
     19 C19          2.4420     5.8120    -0.6890 c3         1 1UD       0.219100
     20 C20         -4.3420     0.4590     0.3640 c5         1 1UD       0.345300
     21 O21         -4.6470     1.8660     0.4490 os         1 1UD      -0.451000
     22 C22         -4.8740     2.3900     1.7680 c3         1 1UD       0.152900
     23 O23         -3.0430     0.2310     0.9380 os         1 1UD      -0.467000
     24 C24         -2.4560    -0.9260     0.2790 c5         1 1UD       0.167300
     25 C25         -3.4110    -1.2820    -0.9180 c5         1 1UD       0.142300
     26 O26         -4.3200    -2.3090    -0.4150 os         1 1UD      -0.433000
     27 C26         -5.1540    -3.0030    -1.3620 c3         1 1UD       0.151900
     28 C27         -4.1320     0.0940    -1.1330 c5         1 1UD       0.113300
     29 O28         -5.3240     0.0690    -1.9460 oh         1 1UD      -0.695000
     30 H1           5.0220     0.7830    -0.7360 ha         1 1UD       0.135000
     31 H2          -0.0920    -1.0210     1.7540 hc         1 1UD       0.062700
     32 H3          -0.4420     0.6680     1.5260 hc         1 1UD       0.062700
     33 H4          -1.0350     0.2730    -0.8620 hc         1 1UD       0.055700
     34 H5          -0.5910    -1.4170    -0.7090 hc         1 1UD       0.055700
     35 H6           1.5550    -4.5600     1.2340 hn         1 1UD       0.485500
     36 H7           3.1570    -5.1390     1.0730 hn         1 1UD       0.485500
     37 H8           4.6720    -3.8840    -0.0660 hn         1 1UD       0.323500
     38 H9           4.0170     3.4380    -0.7580 hn         1 1UD       0.356000
     39 H11          0.6510     4.8670     0.0630 hn         1 1UD       0.524000
     40 H12          3.3520     5.9330    -0.0870 h1         1 1UD       0.039367
     41 H13          2.7330     5.6220    -1.7310 h1         1 1UD       0.039367
     42 H14          1.8760     6.7520    -0.6540 h1         1 1UD       0.039367
     43 H16         -5.7080     1.8700     2.2550 h1         1 1UD       0.035033
     44 H17         -3.9790     2.2770     2.3940 h1         1 1UD       0.035033
     45 H18         -5.1200     3.4580     1.7170 h1         1 1UD       0.035033
     46 H19         -2.4060    -1.7570     0.9970 h1         1 1UD       0.058700
     47 H20         -2.8740    -1.6480    -1.8040 h1         1 1UD       0.051700
     48 H21         -5.9210    -2.3450    -1.7860 h1         1 1UD       0.030367
     49 H22         -4.5520    -3.4140    -2.1830 h1         1 1UD       0.030367
     50 H23         -5.6690    -3.8370    -0.8700 h1         1 1UD       0.030367
     51 H24         -3.4180     0.8050    -1.5740 h1         1 1UD       0.054700
     52 H25         -5.7570     0.9470    -1.8310 ho         1 1UD       0.508000
     53 H15         -5.1110    -0.1600     0.8460 h2         1 1UD       0.041700
@<TRIPOS>BOND
     1     1     2 ar  
     2     1     8 ar  
     3     1    13 1   
     4     2     3 ar  
     5     2    30 1   
     6     3     4 ar  
     7     3    15 1   
     8     4     5 ar  
     9     4    16 1   
    10     5     6 1   
    11     5     8 ar  
    12     6     7 1   
    13     6    31 1   
    14     6    32 1   
    15     7    24 1   
    16     7    33 1   
    17     7    34 1   
    18     8     9 1   
    19     9    10 2   
    20    10    11 1   
    21    10    12 1   
    22    11    35 1   
    23    11    36 1   
    24    12    13 1   
    25    12    37 1   
    26    13    14 2   
    27    15    17 1   
    28    15    38 1   
    29    16    17 2   
    30    17    18 1   
    31    18    19 1   
    32    18    39 1   
    33    19    40 1   
    34    19    41 1   
    35    19    42 1   
    36    20    21 1   
    37    20    23 1   
    38    20    28 1   
    39    20    53 1   
    40    21    22 1   
    41    22    43 1   
    42    22    44 1   
    43    22    45 1   
    44    23    24 1   
    45    24    25 1   
    46    24    46 1   
    47    25    26 1   
    48    25    28 1   
    49    25    47 1   
    50    26    27 1   
    51    27    48 1   
    52    27    49 1   
    53    27    50 1   
    54    28    29 1   
    55    28    51 1   
    56    29    52 1   
@<TRIPOS>SUBSTRUCTURE
     1 1UD         1 TEMP              0 ****  ****    0 ROOT
