@<TRIPOS>MOLECULE
1UD
   53    56     1     0     0
SMALL
abcg2


@<TRIPOS>ATOM
      1 C1           3.4340    -0.7980    -0.1030 ca         1 1UD      -0.228600
      2 C2           3.9800     0.4580    -0.4070 ca         1 1UD      -0.029000
      3 C3           3.1570     1.5370    -0.2520 ca         1 1UD      -0.117200
      4 C4           1.8150     1.4220     0.1910 ca         1 1UD       0.162400
      5 C5           1.2690     0.1830     0.4990 ca         1 1UD      -0.060300
      6 C6          -0.1560     0.0550     0.9460 c3         1 1UD      -0.004100
      7 C7          -1.0750    -0.3900    -0.1920 c3         1 1UD      -0.063400
      8 C8           2.0980    -0.9440     0.3430 ca         1 1UD       0.215400
      9 N9           1.5670    -2.1750     0.6420 nc         1 1UD      -0.701100
     10 C10          2.3090    -3.2190     0.4910 cd         1 1UD       0.702800
     11 N11          1.8160    -4.4600     0.7100 nv         1 1UD      -1.032200
     12 N12          3.6060    -3.1570     0.0570 ns         1 1UD      -0.453400
     13 C13          4.2540    -1.9820    -0.2560 c          1 1UD       0.593600
     14 O14          5.4180    -2.0010    -0.6300 o          1 1UD      -0.554000
     15 N15          3.3410     2.8900    -0.4490 na         1 1UD      -0.358600
     16 N16          1.2290     2.6560     0.2510 nc         1 1UD      -0.663100
     17 C17          2.1660     3.5010    -0.1350 cd         1 1UD       0.686700
     18 N18          2.0120     4.8260    -0.2110 nu         1 1UD      -0.914400
     19 C19          3.0290     5.7280    -0.6940 c3         1 1UD       0.219100
     20 C20         -4.4630     0.5360     0.5940 c5         1 1UD       0.345300
     21 O21         -5.0820     1.7640     0.5800 os         1 1UD      -0.451000
     22 C22         -5.0720     2.4450     1.8190 c3         1 1UD       0.152900
     23 O23         -3.0650     0.6910     0.6190 os         1 1UD      -0.467000
     24 C24         -2.5190    -0.5540     0.2260 c5         1 1UD       0.167300
     25 C25         -3.4460    -1.0680    -0.8900 c5         1 1UD       0.142300
     26 O26         -3.6010    -2.4500    -0.7540 os         1 1UD      -0.433000
     27 C26         -3.9200    -3.1170    -1.9520 c3         1 1UD       0.151900
     28 C27         -4.7450    -0.2470    -0.6930 c5         1 1UD       0.113300
     29 O28         -5.8700    -1.0740    -0.6130 oh         1 1UD      -0.695000
     30 H1           5.0030     0.5520    -0.7460 ha         1 1UD       0.135000
     31 H2          -0.2240    -0.6680     1.7630 hc         1 1UD       0.062700
     32 H3          -0.4940     1.0160     1.3360 hc         1 1UD       0.062700
     33 H4          -1.0190     0.3230    -1.0200 hc         1 1UD       0.055700
     34 H5          -0.7300    -1.3530    -0.5770 hc         1 1UD       0.055700
     35 H6           0.9420    -4.4980     1.2100 hn         1 1UD       0.485500
     36 H7           2.4520    -5.2110     0.9230 hn         1 1UD       0.485500
     37 H8           4.1310    -4.0130    -0.0660 hn         1 1UD       0.323500
     38 H9           4.1850     3.3330    -0.7750 hn         1 1UD       0.356000
     39 H11          1.0970     5.1850     0.0010 hn         1 1UD       0.524000
     40 H12          3.9280     5.6950    -0.0750 h1         1 1UD       0.039367
     41 H13          3.3110     5.5180    -1.7290 h1         1 1UD       0.039367
     42 H14          2.6360     6.7390    -0.6520 h1         1 1UD       0.039367
     43 H16         -5.4710     1.8190     2.6240 h1         1 1UD       0.035033
     44 H17         -4.0700     2.7770     2.1030 h1         1 1UD       0.035033
     45 H18         -5.7090     3.3220     1.7150 h1         1 1UD       0.035033
     46 H19         -2.5800    -1.2680     1.0630 h1         1 1UD       0.058700
     47 H20         -3.0130    -0.8290    -1.8720 h1         1 1UD       0.051700
     48 H21         -4.8850    -2.8120    -2.3640 h1         1 1UD       0.030367
     49 H22         -3.1540    -2.9540    -2.7190 h1         1 1UD       0.030367
     50 H23         -3.9620    -4.1840    -1.7330 h1         1 1UD       0.030367
     51 H24         -4.8320     0.4780    -1.5120 h1         1 1UD       0.054700
     52 H25         -6.6530    -0.5220    -0.6970 ho         1 1UD       0.508000
     53 H15         -4.7910    -0.0570     1.4690 h2         1 1UD       0.041700
@<TRIPOS>BOND
     1     1     2 ar  
     2     1     8 ar  
     3     1    13 1   
     4     2     3 ar  
     5     2    30 1   
     6     3     4 ar  
     7     3    15 1   
     8     4     5 ar  
     9     4    16 1   
    10     5     6 1   
    11     5     8 ar  
    12     6     7 1   
    13     6    31 1   
    14     6    32 1   
    15     7    24 1   
    16     7    33 1   
    17     7    34 1   
    18     8     9 1   
    19     9    10 2   
    20    10    11 1   
    21    10    12 1   
    22    11    35 1   
    23    11    36 1   
    24    12    13 1   
    25    12    37 1   
    26    13    14 2   
    27    15    17 1   
    28    15    38 1   
    29    16    17 2   
    30    17    18 1   
    31    18    19 1   
    32    18    39 1   
    33    19    40 1   
    34    19    41 1   
    35    19    42 1   
    36    20    21 1   
    37    20    23 1   
    38    20    28 1   
    39    20    53 1   
    40    21    22 1   
    41    22    43 1   
    42    22    44 1   
    43    22    45 1   
    44    23    24 1   
    45    24    25 1   
    46    24    46 1   
    47    25    26 1   
    48    25    28 1   
    49    25    47 1   
    50    26    27 1   
    51    27    48 1   
    52    27    49 1   
    53    27    50 1   
    54    28    29 1   
    55    28    51 1   
    56    29    52 1   
@<TRIPOS>SUBSTRUCTURE
     1 1UD         1 TEMP              0 ****  ****    0 ROOT
