@<TRIPOS>MOLECULE
1UE
   34    37     1     0     0
SMALL
abcg2


@<TRIPOS>ATOM
      1 C2           2.1180     1.4540    -0.0230 c          1 1UE       0.620200
      2 C3           4.4960     0.8360     0.0100 cc         1 1UE       0.755800
      3 C4           2.9820    -0.7940     0.0130 cd         1 1UE       0.275500
      4 C9          -1.5180    -1.7140    -0.0210 ca         1 1UE      -0.140000
      5 C8          -0.9980    -3.0080     0.0010 ca         1 1UE      -0.088000
      6 C7           0.3650    -3.2340     0.0170 ca         1 1UE      -0.134000
      7 C5           1.1850    -2.1150     0.0110 ca         1 1UE      -0.039200
      8 N4           2.5600    -2.0760     0.0240 na         1 1UE      -0.216700
      9 N3           4.2770    -0.4570     0.0230 nd         1 1UE      -0.740300
     10 N2           5.7470     1.2990     0.0320 nv         1 1UE      -1.062200
     11 N1           3.4880     1.7490    -0.0130 ns         1 1UE      -0.456400
     12 O1           1.3170     2.3770    -0.0410 o          1 1UE      -0.535000
     13 C1           1.8700     0.0530    -0.0100 cc         1 1UE      -0.305400
     14 C6           0.6980    -0.7880    -0.0110 ca         1 1UE      -0.010800
     15 C15         -0.6930    -0.5950    -0.0290 ca         1 1UE      -0.062000
     16 S1          -1.3380     1.0590    -0.0590 ss         1 1UE       0.113000
     17 C10         -3.0900     0.7900    -0.0610 ca         1 1UE      -0.159000
     18 C11         -3.7870     0.7460     1.1430 ca         1 1UE      -0.060000
     19 C12         -5.1660     0.5950     1.1390 ca         1 1UE      -0.128000
     20 C14         -5.8510     0.4950    -0.0660 ca         1 1UE      -0.087000
     21 C16         -5.1570     0.5460    -1.2670 ca         1 1UE      -0.128000
     22 C13         -3.7780     0.6970    -1.2670 ca         1 1UE      -0.060000
     23 H1          -2.5920    -1.5950    -0.0340 ha         1 1UE       0.121000
     24 H2          -1.6830    -3.8450     0.0060 ha         1 1UE       0.111000
     25 H3           0.7760    -4.2350     0.0340 ha         1 1UE       0.115000
     26 H4           3.1700    -2.8780     0.0450 hn         1 1UE       0.361000
     27 H5           5.9600     2.2780    -0.0440 hn         1 1UE       0.510000
     28 H6           6.5100     0.6450     0.0070 hn         1 1UE       0.510000
     29 H7           3.7210     2.7340    -0.0220 hn         1 1UE       0.322500
     30 H8          -3.2500     0.8280     2.0800 ha         1 1UE       0.127000
     31 H9          -5.7070     0.5580     2.0760 ha         1 1UE       0.114000
     32 H10         -6.9280     0.3810    -0.0670 ha         1 1UE       0.112000
     33 H11         -5.6910     0.4720    -2.2060 ha         1 1UE       0.114000
     34 H12         -3.2340     0.7390    -2.2020 ha         1 1UE       0.127000
@<TRIPOS>BOND
     1     1    11 1   
     2     1    12 2   
     3     1    13 1   
     4     2     9 2   
     5     2    10 1   
     6     2    11 1   
     7     3     8 1   
     8     3     9 1   
     9     3    13 2   
    10     4     5 ar  
    11     4    15 ar  
    12     4    23 1   
    13     5     6 ar  
    14     5    24 1   
    15     6     7 ar  
    16     6    25 1   
    17     7     8 1   
    18     7    14 ar  
    19     8    26 1   
    20    10    27 1   
    21    10    28 1   
    22    11    29 1   
    23    13    14 1   
    24    14    15 ar  
    25    15    16 1   
    26    16    17 1   
    27    17    18 ar  
    28    17    22 ar  
    29    18    19 ar  
    30    18    30 1   
    31    19    20 ar  
    32    19    31 1   
    33    20    21 ar  
    34    20    32 1   
    35    21    22 ar  
    36    21    33 1   
    37    22    34 1   
@<TRIPOS>SUBSTRUCTURE
     1 1UE         1 TEMP              0 ****  ****    0 ROOT
