@<TRIPOS>MOLECULE
1UE
   34    37     1     0     0
SMALL
No Charge or Current Charge


@<TRIPOS>ATOM
      1 C2           1.8650     1.3550    -0.4970 c          1 1UE       0.620200
      2 C3           3.9820     1.0730     0.5340 cc         1 1UE       0.755800
      3 C4           2.7090    -0.7700     0.4650 cd         1 1UE       0.275500
      4 C9          -1.4420    -2.1290    -1.0320 ca         1 1UE      -0.140000
      5 C8          -0.9660    -3.3380    -0.4850 ca         1 1UE      -0.088000
      6 C7           0.3090    -3.3910     0.1030 ca         1 1UE      -0.134000
      7 C5           1.0800    -2.2220     0.1270 ca         1 1UE      -0.039200
      8 N4           2.3490    -2.1000     0.6660 na         1 1UE      -0.216700
      9 N3           3.9080    -0.1920     0.8490 nd         1 1UE      -0.740300
     10 N2           5.1010     1.6830     0.8660 nv         1 1UE      -1.062200
     11 N1           3.0610     1.8230    -0.0870 ns         1 1UE      -0.456400
     12 O1           1.0650     2.0840    -1.0530 o          1 1UE      -0.535000
     13 C1           1.7060    -0.0700    -0.1820 cc         1 1UE      -0.305400
     14 C6           0.6280    -1.0280    -0.4060 ca         1 1UE      -0.010800
     15 C15         -0.6570    -0.9540    -1.0010 ca         1 1UE      -0.062000
     16 S1          -1.3550     0.5300    -1.7210 ss         1 1UE       0.113000
     17 C10         -2.8590     0.6690    -0.7560 ca         1 1UE      -0.159000
     18 C11         -2.8300     0.5080     0.6430 ca         1 1UE      -0.060000
     19 C12         -4.0160     0.6210     1.3890 ca         1 1UE      -0.128000
     20 C14         -5.2330     0.8990     0.7420 ca         1 1UE      -0.087000
     21 C16         -5.2620     1.0660    -0.6530 ca         1 1UE      -0.128000
     22 C13         -4.0770     0.9530    -1.4020 ca         1 1UE      -0.060000
     23 H1          -2.4310    -2.1050    -1.4840 ha         1 1UE       0.121000
     24 H2          -1.5870    -4.2310    -0.5170 ha         1 1UE       0.111000
     25 H3           0.6850    -4.3180     0.5300 ha         1 1UE       0.115000
     26 H4           2.9080    -2.8120     1.1150 hn         1 1UE       0.361000
     27 H5           5.4160     2.4090     0.2340 hn         1 1UE       0.510000
     28 H6           5.8240     1.0420     1.1670 hn         1 1UE       0.510000
     29 H7           3.2400     2.7990    -0.2420 hn         1 1UE       0.322500
     30 H8          -1.8920     0.2970     1.1520 ha         1 1UE       0.127000
     31 H9          -3.9920     0.4940     2.4690 ha         1 1UE       0.114000
     32 H10         -6.1500     0.9860     1.3200 ha         1 1UE       0.112000
     33 H11         -6.2020     1.2820    -1.1550 ha         1 1UE       0.114000
     34 H12         -4.1050     1.0830    -2.4820 ha         1 1UE       0.127000
@<TRIPOS>BOND
     1     1    11 1   
     2     1    12 2   
     3     1    13 1   
     4     2     9 2   
     5     2    10 1   
     6     2    11 1   
     7     3     8 1   
     8     3     9 1   
     9     3    13 2   
    10     4     5 ar  
    11     4    15 ar  
    12     4    23 1   
    13     5     6 ar  
    14     5    24 1   
    15     6     7 ar  
    16     6    25 1   
    17     7     8 1   
    18     7    14 ar  
    19     8    26 1   
    20    10    27 1   
    21    10    28 1   
    22    11    29 1   
    23    13    14 1   
    24    14    15 ar  
    25    15    16 1   
    26    16    17 1   
    27    17    18 ar  
    28    17    22 ar  
    29    18    19 ar  
    30    18    30 1   
    31    19    20 ar  
    32    19    31 1   
    33    20    21 ar  
    34    20    32 1   
    35    21    22 ar  
    36    21    33 1   
    37    22    34 1   
@<TRIPOS>SUBSTRUCTURE
     1 1UE         1 TEMP              0 ****  ****    0 ROOT
