@<TRIPOS>MOLECULE
1UF
   48    50     1     0     0
SMALL
abcg2


@<TRIPOS>ATOM
      1 OE1         -7.2850    -2.2180    -2.4400 o          1 1UF      -0.761500
      2 CD          -7.1820    -1.6860    -1.3140 c          1 1UF       0.713000
      3 OE2         -7.8940    -1.9230    -0.3180 o          1 1UF      -0.761500
      4 CG          -6.0570    -0.6450    -1.1630 c3         1 1UF      -0.202400
      5 CB          -5.9780     0.0380     0.1930 c3         1 1UF      -0.054400
      6 CA          -4.8670     1.0830     0.2900 c3         1 1UF      -0.050300
      7 C           -4.9450     1.8410     1.6450 c          1 1UF       0.716000
      8 OXT         -5.9440     2.5750     1.7780 o          1 1UF      -0.744000
      9 O           -4.0400     1.6430     2.4740 o          1 1UF      -0.744000
     10 N           -3.5830     0.4420     0.1130 ns         1 1UF      -0.425900
     11 CAV         -2.4500     1.1440    -0.0090 c          1 1UF       0.610700
     12 OAE         -2.4020     2.3220    -0.3320 o          1 1UF      -0.614100
     13 CBA         -1.2100     0.3630     0.2980 ca         1 1UF      -0.107600
     14 CAZ         -0.1270     0.2750    -0.5680 ca         1 1UF       0.160000
     15 CL1         -0.2110     0.9820    -2.1480 cl         1 1UF      -0.207000
     16 CAL          1.0260    -0.4140    -0.2290 ca         1 1UF      -0.128000
     17 CAK         -1.0950    -0.2500     1.5440 ca         1 1UF      -0.062000
     18 CAJ          0.0540    -0.9250     1.9130 ca         1 1UF      -0.109000
     19 CAY          1.1210    -1.0130     1.0210 ca         1 1UF      -0.098000
     20 SAS          2.5360    -1.9330     1.5370 ss         1 1UF       0.070000
     21 CBB          3.7430    -1.5210     0.3540 cc         1 1UF      -0.127000
     22 CBE          4.5130    -0.3170     0.2810 cc         1 1UF      -0.260600
     23 CBC          4.5350     0.9030     1.0110 c          1 1UF       0.618600
     24 OAF          3.8480     1.2310     1.9650 o          1 1UF      -0.503000
     25 NAQ          5.4970     1.7850     0.5020 ns         1 1UF      -0.455400
     26 CAW          6.3220     1.5400    -0.5560 cc         1 1UF       0.721800
     27 NAB          7.1570     2.5300    -0.9200 nv         1 1UF      -1.044200
     28 NAO          6.2990     0.4200    -1.2310 nd         1 1UF      -0.723100
     29 CBD          5.3880    -0.4620    -0.7870 cd         1 1UF       0.152400
     30 NAR          5.1720    -1.6830    -1.3330 na         1 1UF      -0.112000
     31 CAX          4.1730    -2.3410    -0.6590 cd         1 1UF      -0.112300
     32 CAA          3.7290    -3.6970    -1.0610 c3         1 1UF      -0.033800
     33 H2          -5.1080    -1.1390    -1.3970 hc         1 1UF       0.012200
     34 H3          -6.1810     0.1110    -1.9460 hc         1 1UF       0.012200
     35 H4          -6.9220     0.5370     0.4100 hc         1 1UF       0.050200
     36 H5          -5.8380    -0.7070     0.9840 hc         1 1UF       0.050200
     37 H6          -5.0050     1.8100    -0.5160 h1         1 1UF       0.057700
     38 H8          -3.5020    -0.5080     0.4390 hn         1 1UF       0.294500
     39 H9           1.8420    -0.4850    -0.9350 ha         1 1UF       0.116000
     40 H10         -1.9170    -0.1650     2.2440 ha         1 1UF       0.168000
     41 H11          0.1190    -1.3760     2.8950 ha         1 1UF       0.114000
     42 H12          5.5620     2.6810     0.9660 hn         1 1UF       0.318500
     43 H13          7.3650     3.2760    -0.2780 hn         1 1UF       0.488000
     44 H14          7.8890     2.2930    -1.5670 hn         1 1UF       0.488000
     45 H15          5.6740    -2.0520    -2.1260 hn         1 1UF       0.349000
     46 H16          3.3980    -3.7110    -2.1010 hc         1 1UF       0.054033
     47 H17          4.5350    -4.4270    -0.9620 hc         1 1UF       0.054033
     48 H18          2.9000    -4.0220    -0.4370 hc         1 1UF       0.054033
@<TRIPOS>BOND
     1     1     2 1   
     2     2     3 1   
     3     2     4 1   
     4     4     5 1   
     5     4    33 1   
     6     4    34 1   
     7     5     6 1   
     8     5    35 1   
     9     5    36 1   
    10     6     7 1   
    11     6    10 1   
    12     6    37 1   
    13     7     8 1   
    14     7     9 1   
    15    10    11 1   
    16    10    38 1   
    17    11    12 2   
    18    11    13 1   
    19    13    14 ar  
    20    13    17 ar  
    21    14    15 1   
    22    14    16 ar  
    23    16    19 ar  
    24    16    39 1   
    25    17    18 ar  
    26    17    40 1   
    27    18    19 ar  
    28    18    41 1   
    29    19    20 1   
    30    20    21 1   
    31    21    22 1   
    32    21    31 2   
    33    22    23 1   
    34    22    29 2   
    35    23    24 2   
    36    23    25 1   
    37    25    26 1   
    38    25    42 1   
    39    26    27 1   
    40    26    28 2   
    41    27    43 1   
    42    27    44 1   
    43    28    29 1   
    44    29    30 1   
    45    30    31 1   
    46    30    45 1   
    47    31    32 1   
    48    32    46 1   
    49    32    47 1   
    50    32    48 1   
@<TRIPOS>SUBSTRUCTURE
     1 1UF         1 TEMP              0 ****  ****    0 ROOT
