@<TRIPOS>MOLECULE
1UF
   48    50     1     0     0
SMALL
No Charge or Current Charge


@<TRIPOS>ATOM
      1 OE1         -7.6280    -0.6490    -2.2470 o          1 1UF      -0.761500
      2 CD          -6.7140    -1.1780    -1.6330 c          1 1UF       0.713000
      3 OE2         -6.7430    -2.3380    -1.2530 o          1 1UF      -0.761500
      4 CG          -5.4910    -0.3180    -1.2630 c3         1 1UF      -0.202400
      5 CB          -5.7190     0.3720     0.1070 c3         1 1UF      -0.054400
      6 CA          -4.5980     1.3590     0.5330 c3         1 1UF      -0.050300
      7 C           -4.9790     2.1120     1.8440 c          1 1UF       0.716000
      8 OXT         -5.2590     3.3000     1.7680 o          1 1UF      -0.744000
      9 O           -4.8930     1.5130     2.9090 o          1 1UF      -0.744000
     10 N           -3.2870     0.6820     0.6970 ns         1 1UF      -0.425900
     11 CAV         -2.2870     0.6130    -0.2550 c          1 1UF       0.610700
     12 OAE         -2.3920     1.1900    -1.3300 o          1 1UF      -0.614100
     13 CBA         -1.0430    -0.1420     0.1650 ca         1 1UF      -0.107600
     14 CAZ         -0.2140    -0.8080    -0.7750 ca         1 1UF       0.160000
     15 Cl1         -0.5950    -0.8940    -2.4980 cl         1 1UF      -0.207000
     16 CAL          0.9390    -1.4900    -0.3500 ca         1 1UF      -0.128000
     17 CAK         -0.6760    -0.1910     1.5330 ca         1 1UF      -0.062000
     18 CAJ          0.4810    -0.8730     1.9450 ca         1 1UF      -0.109000
     19 CAY          1.3040    -1.5170     1.0100 ca         1 1UF      -0.098000
     20 SAS          2.7700    -2.3800     1.6010 ss         1 1UF       0.070000
     21 CBB          3.7750    -1.6480     0.3490 cc         1 1UF      -0.127000
     22 CBE          4.2880    -0.3380     0.2540 cc         1 1UF      -0.260600
     23 CBC          4.1280     0.8050     1.1520 c          1 1UF       0.618600
     24 OAF          3.5020     0.8240     2.2000 o          1 1UF      -0.503000
     25 NAQ          4.7860     1.8860     0.6740 ns         1 1UF      -0.455400
     26 CAW          5.4880     1.8800    -0.4800 cc         1 1UF       0.721800
     27 NAB          6.0790     3.0160    -0.8030 nv         1 1UF      -1.044200
     28 NAO          5.6600     0.8780    -1.3120 nd         1 1UF      -0.723100
     29 CBD          5.0120    -0.2780    -0.8960 cd         1 1UF       0.152400
     30 NAR          4.9700    -1.5310    -1.5080 na         1 1UF      -0.112000
     31 CAX          4.1960    -2.4030    -0.7190 cd         1 1UF      -0.112300
     32 CAA          3.9470    -3.8530    -1.0520 c3         1 1UF      -0.033800
     33 H2          -4.6040    -0.9520    -1.1440 hc         1 1UF       0.012200
     34 H3          -5.3600     0.4930    -1.9900 hc         1 1UF       0.012200
     35 H4          -6.6660     0.9250     0.0670 hc         1 1UF       0.050200
     36 H5          -5.8390    -0.3950     0.8820 hc         1 1UF       0.050200
     37 H6          -4.4990     2.1220    -0.2490 h1         1 1UF       0.057700
     38 H8          -3.1240     0.1870     1.5660 hn         1 1UF       0.294500
     39 H9           1.5390    -2.0080    -1.0900 ha         1 1UF       0.116000
     40 H10         -1.2660     0.3220     2.2910 ha         1 1UF       0.168000
     41 H11          0.7480    -0.8880     3.0000 ha         1 1UF       0.114000
     42 H12          4.7180     2.7340     1.2110 hn         1 1UF       0.318500
     43 H13          6.3740     3.6080    -0.0370 hn         1 1UF       0.488000
     44 H14          6.7430     2.9270    -1.5610 hn         1 1UF       0.488000
     45 H15          5.4340    -1.7650    -2.3760 hn         1 1UF       0.349000
     46 H16          4.3210    -4.1060    -2.0510 hc         1 1UF       0.054033
     47 H17          4.4500    -4.5100    -0.3320 hc         1 1UF       0.054033
     48 H18          2.8770    -4.0890    -1.0280 hc         1 1UF       0.054033
@<TRIPOS>BOND
     1     1     2 1   
     2     2     3 1   
     3     2     4 1   
     4     4     5 1   
     5     4    33 1   
     6     4    34 1   
     7     5     6 1   
     8     5    35 1   
     9     5    36 1   
    10     6     7 1   
    11     6    10 1   
    12     6    37 1   
    13     7     8 1   
    14     7     9 1   
    15    10    11 1   
    16    10    38 1   
    17    11    12 2   
    18    11    13 1   
    19    13    14 ar  
    20    13    17 ar  
    21    14    15 1   
    22    14    16 ar  
    23    16    19 ar  
    24    16    39 1   
    25    17    18 ar  
    26    17    40 1   
    27    18    19 ar  
    28    18    41 1   
    29    19    20 1   
    30    20    21 1   
    31    21    22 1   
    32    21    31 2   
    33    22    23 1   
    34    22    29 2   
    35    23    24 2   
    36    23    25 1   
    37    25    26 1   
    38    25    42 1   
    39    26    27 1   
    40    26    28 2   
    41    27    43 1   
    42    27    44 1   
    43    28    29 1   
    44    29    30 1   
    45    30    31 1   
    46    30    45 1   
    47    31    32 1   
    48    32    46 1   
    49    32    47 1   
    50    32    48 1   
@<TRIPOS>SUBSTRUCTURE
     1 1UF         1 TEMP              0 ****  ****    0 ROOT
