@<TRIPOS>MOLECULE
1UG
   40    44     1     0     0
SMALL
No Charge or Current Charge


@<TRIPOS>ATOM
      1 CAG         -2.4440   -13.3310   -53.3530 ca         1 1UG      -0.054000
      2 CAE         -2.0010   -14.6400   -53.1080 ca         1 1UG      -0.124000
      3 CAJ         -2.9060   -15.7100   -53.1620 ca         1 1UG      -0.076000
      4 CAU         -4.2620   -15.4740   -53.4560 ca         1 1UG      -0.050000
      5 CAI         -5.1600   -16.5580   -53.5030 ca         1 1UG      -0.100000
      6 CAC         -6.5170   -16.3390   -53.7890 ca         1 1UG      -0.109000
      7 CAD         -6.9810   -15.0370   -54.0280 ca         1 1UG      -0.103000
      8 CAL         -6.0910   -13.9510   -53.9830 ca         1 1UG      -0.096000
      9 CAX         -4.7200   -14.1550   -53.7020 ca         1 1UG      -0.005000
     10 CAR         -3.7950   -13.0800   -53.6550 ca         1 1UG      -0.139000
     11 SAP         -4.2780   -11.3800   -53.9780 ss         1 1UG       0.106000
     12 CAS         -4.6440   -11.4910   -55.7290 ca         1 1UG      -0.068000
     13 CAY         -5.8560   -11.0510   -56.3200 ca         1 1UG      -0.005800
     14 CAZ         -7.0780   -10.4390   -55.8090 cc         1 1UG      -0.302400
     15 CAT         -7.5090   -10.0220   -54.4690 c          1 1UG       0.617200
     16 OAB         -6.8820   -10.1070   -53.4300 o          1 1UG      -0.539000
     17 NAN         -8.7500    -9.4960   -54.4880 ns         1 1UG      -0.456400
     18 CAQ         -9.4880    -9.3660   -55.6000 cc         1 1UG       0.754800
     19 NAA        -10.6820    -8.8340   -55.4450 nv         1 1UG      -1.063200
     20 NAM         -9.1690    -9.7050   -56.8190 nd         1 1UG      -0.738300
     21 CAW         -7.9050   -10.2650   -56.9050 cd         1 1UG       0.279500
     22 NAO         -7.2980   -10.7180   -58.0730 na         1 1UG      -0.223700
     23 CAV         -6.0560   -11.1900   -57.6820 ca         1 1UG      -0.040200
     24 CAK         -5.0910   -11.7500   -58.5270 ca         1 1UG      -0.131000
     25 CAF         -3.8810   -12.1850   -57.9620 ca         1 1UG      -0.089000
     26 CAH         -3.6610   -12.0550   -56.5760 ca         1 1UG      -0.132000
     27 H1          -1.7340   -12.5080   -53.3140 ha         1 1UG       0.127000
     28 H2          -0.9540   -14.8250   -52.8790 ha         1 1UG       0.116000
     29 H3          -2.5530   -16.7210   -52.9730 ha         1 1UG       0.113000
     30 H4          -4.8090   -17.5700   -53.3160 ha         1 1UG       0.111000
     31 H5          -7.2080   -17.1790   -53.8240 ha         1 1UG       0.112000
     32 H6          -8.0330   -14.8670   -54.2460 ha         1 1UG       0.114000
     33 H7          -6.4850   -12.9560   -54.1660 ha         1 1UG       0.134000
     34 H8          -9.1120    -9.1610   -53.6120 hn         1 1UG       0.323500
     35 H9         -11.2530    -8.9260   -56.2760 hn         1 1UG       0.511000
     36 H10        -11.1630    -9.0440   -54.5790 hn         1 1UG       0.511000
     37 H11         -7.6950   -10.7000   -59.0020 hn         1 1UG       0.362000
     38 H12         -5.2720   -11.8490   -59.5960 ha         1 1UG       0.116000
     39 H13         -3.1120   -12.6230   -58.5950 ha         1 1UG       0.114000
     40 H14         -2.7180   -12.3970   -56.1570 ha         1 1UG       0.124000
@<TRIPOS>BOND
     1     1     2 ar  
     2     1    10 ar  
     3     1    27 1   
     4     2     3 ar  
     5     2    28 1   
     6     3     4 ar  
     7     3    29 1   
     8     4     5 ar  
     9     4     9 ar  
    10     5     6 ar  
    11     5    30 1   
    12     6     7 ar  
    13     6    31 1   
    14     7     8 ar  
    15     7    32 1   
    16     8     9 ar  
    17     8    33 1   
    18     9    10 ar  
    19    10    11 1   
    20    11    12 1   
    21    12    13 ar  
    22    12    26 ar  
    23    13    14 1   
    24    13    23 ar  
    25    14    15 1   
    26    14    21 2   
    27    15    16 2   
    28    15    17 1   
    29    17    18 1   
    30    17    34 1   
    31    18    19 1   
    32    18    20 2   
    33    19    35 1   
    34    19    36 1   
    35    20    21 1   
    36    21    22 1   
    37    22    23 1   
    38    22    37 1   
    39    23    24 ar  
    40    24    25 ar  
    41    24    38 1   
    42    25    26 ar  
    43    25    39 1   
    44    26    40 1   
@<TRIPOS>SUBSTRUCTURE
     1 1UG         1 TEMP              0 ****  ****    0 ROOT
