@<TRIPOS>MOLECULE
1UG
   40    44     1     0     0
SMALL
abcg2


@<TRIPOS>ATOM
      1 CAG         -2.8910   -13.1100   -53.1000 ca         1 1UG      -0.054000
      2 CAE         -2.0000   -14.1500   -52.7660 ca         1 1UG      -0.124000
      3 CAJ         -2.3880   -15.4570   -52.9000 ca         1 1UG      -0.076000
      4 CAU         -3.6860   -15.7820   -53.3660 ca         1 1UG      -0.050000
      5 CAI         -4.0980   -17.1300   -53.5100 ca         1 1UG      -0.100000
      6 CAC         -5.3560   -17.4370   -53.9590 ca         1 1UG      -0.109000
      7 CAD         -6.2610   -16.4030   -54.2810 ca         1 1UG      -0.103000
      8 CAL         -5.8930   -15.0870   -54.1520 ca         1 1UG      -0.096000
      9 CAX         -4.6020   -14.7340   -53.6940 ca         1 1UG      -0.005000
     10 CAR         -4.1620   -13.3820   -53.5530 ca         1 1UG      -0.139000
     11 SAP         -5.2570   -12.0070   -53.8400 ss         1 1UG       0.106000
     12 CAS         -5.3980   -11.9640   -55.6170 ca         1 1UG      -0.068000
     13 CAY         -6.3490   -11.1210   -56.2250 ca         1 1UG      -0.005800
     14 CAZ         -7.3450   -10.1630   -55.7820 cc         1 1UG      -0.302400
     15 CAT         -7.7550    -9.6120   -54.5340 c          1 1UG       0.617200
     16 OAB         -7.3280    -9.8330   -53.4000 o          1 1UG      -0.539000
     17 NAN         -8.7990    -8.6720   -54.6760 ns         1 1UG      -0.456400
     18 CAQ         -9.3610    -8.2770   -55.8540 cc         1 1UG       0.754800
     19 NAA        -10.3340    -7.3530   -55.8030 nv         1 1UG      -1.063200
     20 NAM         -8.9710    -8.7610   -57.0170 nd         1 1UG      -0.738300
     21 CAW         -7.9860    -9.6720   -56.9380 cd         1 1UG       0.279500
     22 NAO         -7.4410   -10.2650   -58.0320 na         1 1UG      -0.223700
     23 CAV         -6.4430   -11.1450   -57.6450 ca         1 1UG      -0.040200
     24 CAK         -5.6450   -11.9400   -58.4560 ca         1 1UG      -0.131000
     25 CAF         -4.7050   -12.7400   -57.8240 ca         1 1UG      -0.089000
     26 CAH         -4.5830   -12.7490   -56.4330 ca         1 1UG      -0.132000
     27 H1          -2.5720   -12.0800   -53.0040 ha         1 1UG       0.127000
     28 H2          -1.0070   -13.9050   -52.4120 ha         1 1UG       0.116000
     29 H3          -1.7080   -16.2630   -52.6530 ha         1 1UG       0.113000
     30 H4          -3.3950   -17.9150   -53.2570 ha         1 1UG       0.111000
     31 H5          -5.6600   -18.4700   -54.0660 ha         1 1UG       0.112000
     32 H6          -7.2550   -16.6520   -54.6320 ha         1 1UG       0.114000
     33 H7          -6.5930   -14.3010   -54.3990 ha         1 1UG       0.134000
     34 H8          -9.1180    -8.2590   -53.8100 hn         1 1UG       0.323500
     35 H9         -10.7900    -7.0860   -56.6590 hn         1 1UG       0.511000
     36 H10        -10.6960    -7.0060   -54.9310 hn         1 1UG       0.511000
     37 H11         -7.7260   -10.0830   -58.9820 hn         1 1UG       0.362000
     38 H12         -5.7550   -11.9280   -59.5320 ha         1 1UG       0.116000
     39 H13         -4.0530   -13.3730   -58.4120 ha         1 1UG       0.114000
     40 H14         -3.8400   -13.3890   -55.9810 ha         1 1UG       0.124000
@<TRIPOS>BOND
     1     1     2 ar  
     2     1    10 ar  
     3     1    27 1   
     4     2     3 ar  
     5     2    28 1   
     6     3     4 ar  
     7     3    29 1   
     8     4     5 ar  
     9     4     9 ar  
    10     5     6 ar  
    11     5    30 1   
    12     6     7 ar  
    13     6    31 1   
    14     7     8 ar  
    15     7    32 1   
    16     8     9 ar  
    17     8    33 1   
    18     9    10 ar  
    19    10    11 1   
    20    11    12 1   
    21    12    13 ar  
    22    12    26 ar  
    23    13    14 1   
    24    13    23 ar  
    25    14    15 1   
    26    14    21 2   
    27    15    16 2   
    28    15    17 1   
    29    17    18 1   
    30    17    34 1   
    31    18    19 1   
    32    18    20 2   
    33    19    35 1   
    34    19    36 1   
    35    20    21 1   
    36    21    22 1   
    37    22    23 1   
    38    22    37 1   
    39    23    24 ar  
    40    24    25 ar  
    41    24    38 1   
    42    25    26 ar  
    43    25    39 1   
    44    26    40 1   
@<TRIPOS>SUBSTRUCTURE
     1 1UG         1 TEMP              0 ****  ****    0 ROOT
