@<TRIPOS>MOLECULE
1UH
   51    56     1     0     0
SMALL
abcg2


@<TRIPOS>ATOM
      1 N19          2.0770    -3.9590    -0.1900 nv         1 1UH      -1.040900
      2 C18          1.0670    -3.0610    -0.0140 ca         1 1UH       0.616900
      3 C12          1.2880    -1.6830     0.0640 ca         1 1UH      -0.050900
      4 O11          2.4720    -1.0460    -0.0830 os         1 1UH      -0.164200
      5 N17         -0.1730    -3.4950     0.1440 nb         1 1UH      -0.739000
      6 C16         -1.1680    -2.6270     0.3700 ca         1 1UH       0.361900
      7 C15         -1.0450    -1.2510     0.4480 ca         1 1UH      -0.043000
      8 C13          0.2700    -0.7710     0.2820 ca         1 1UH      -0.034800
      9 C14          0.9020     0.5110     0.2570 cc         1 1UH      -0.228200
     10 C10          2.2250     0.2800     0.0350 cd         1 1UH       0.098900
     11 C3           3.3640     1.1710    -0.0920 ca         1 1UH      -0.011800
     12 C5           3.1820     2.5430     0.0490 ca         1 1UH      -0.076000
     13 C6           4.2420     3.4380    -0.0710 ca         1 1UH      -0.119000
     14 C4           5.5190     2.9850    -0.3360 ca         1 1UH      -0.058000
     15 C1           4.6650     0.7130    -0.3600 ca         1 1UH      -0.140000
     16 S9           5.2080    -0.9220    -0.5850 ss         1 1UH       0.096400
     17 C8           6.8340    -0.3940    -0.8390 cc         1 1UH      -0.167400
     18 C7           6.9790     0.9450    -0.7590 cd         1 1UH      -0.174200
     19 C2           5.7410     1.6140    -0.4830 ca         1 1UH      -0.078800
     20 C20         -2.1890    -0.3770     0.6720 cc         1 1UH      -0.143000
     21 C24         -3.4820    -0.5470     0.2150 cd         1 1UH      -0.163000
     22 N23         -4.2080     0.4830     0.6850 na         1 1UH       0.134800
     23 N22         -3.4750     1.3240     1.4070 nd         1 1UH      -0.528800
     24 C21         -2.2560     0.8210     1.4110 cc         1 1UH       0.252900
     25 C25         -5.5960     0.8200     0.3980 c6         1 1UH       0.098300
     26 C30         -5.6920     1.8370    -0.7350 c6         1 1UH      -0.131400
     27 C29         -7.1570     2.1760    -1.0090 c6         1 1UH       0.151800
     28 N28         -7.9950     1.0170    -1.2600 n7         1 1UH      -0.847400
     29 C27         -7.8770     0.0250    -0.2070 c6         1 1UH       0.151800
     30 C26         -6.4370    -0.4080     0.0830 c6         1 1UH      -0.131400
     31 H1           1.7870    -4.8830    -0.4690 hn         1 1UH       0.473000
     32 H2           2.9130    -3.6440    -0.6550 hn         1 1UH       0.473000
     33 H3          -2.1460    -3.0770     0.5070 h4         1 1UH       0.016100
     34 H4           0.4340     1.4730     0.3830 ha         1 1UH       0.218000
     35 H5           2.1940     2.9300     0.2620 ha         1 1UH       0.118000
     36 H6           4.0550     4.4970     0.0450 ha         1 1UH       0.119000
     37 H7           6.3430     3.6800    -0.4290 ha         1 1UH       0.119000
     38 H8           7.6020    -1.1260    -1.0360 h4         1 1UH       0.217000
     39 H9           7.9200     1.4590    -0.8910 ha         1 1UH       0.205000
     40 H10         -3.9070    -1.3170    -0.4080 h4         1 1UH       0.154000
     41 H11         -1.4680     1.3110     1.9640 h4         1 1UH       0.039100
     42 H12         -5.9790     1.2760     1.3160 h1         1 1UH       0.084700
     43 H13         -5.1390     2.7430    -0.4750 hc         1 1UH       0.057950
     44 H14         -5.2310     1.4190    -1.6370 hc         1 1UH       0.057950
     45 H15         -7.5670     2.7130    -0.1470 h1         1 1UH       0.058450
     46 H16         -7.2280     2.8560    -1.8600 h1         1 1UH       0.058450
     47 H17         -7.7270     0.5980    -2.1440 hn         1 1UH       0.407000
     48 H19         -8.3190     0.4390     0.7060 h1         1 1UH       0.058450
     49 H20         -8.4740    -0.8480    -0.4740 h1         1 1UH       0.058450
     50 H21         -6.0460    -0.9240    -0.7990 hc         1 1UH       0.057950
     51 H22         -6.4130    -1.1160     0.9150 hc         1 1UH       0.057950
@<TRIPOS>BOND
     1     1     2 1   
     2     1    31 1   
     3     1    32 1   
     4     2     3 ar  
     5     2     5 ar  
     6     3     4 1   
     7     3     8 ar  
     8     4    10 1   
     9     5     6 ar  
    10     6     7 ar  
    11     6    33 1   
    12     7     8 ar  
    13     7    20 1   
    14     8     9 1   
    15     9    10 2   
    16     9    34 1   
    17    10    11 1   
    18    11    12 ar  
    19    11    15 ar  
    20    12    13 ar  
    21    12    35 1   
    22    13    14 ar  
    23    13    36 1   
    24    14    19 ar  
    25    14    37 1   
    26    15    16 1   
    27    15    19 ar  
    28    16    17 1   
    29    17    18 2   
    30    17    38 1   
    31    18    19 1   
    32    18    39 1   
    33    20    21 2   
    34    20    24 1   
    35    21    22 1   
    36    21    40 1   
    37    22    23 1   
    38    22    25 1   
    39    23    24 2   
    40    24    41 1   
    41    25    26 1   
    42    25    30 1   
    43    25    42 1   
    44    26    27 1   
    45    26    43 1   
    46    26    44 1   
    47    27    28 1   
    48    27    45 1   
    49    27    46 1   
    50    28    29 1   
    51    28    47 1   
    52    29    30 1   
    53    29    48 1   
    54    29    49 1   
    55    30    50 1   
    56    30    51 1   
@<TRIPOS>SUBSTRUCTURE
     1 1UH         1 TEMP              0 ****  ****    0 ROOT
