@<TRIPOS>MOLECULE
1UH
   51    56     1     0     0
SMALL
No Charge or Current Charge


@<TRIPOS>ATOM
      1 N19          1.6750    -3.8380    -1.1450 nv         1 1UH      -1.040900
      2 C18          0.8460    -2.8350    -0.8160 ca         1 1UH       0.616900
      3 C12          1.2410    -1.5400    -0.4550 ca         1 1UH      -0.050900
      4 O11          2.4970    -1.0200    -0.3630 os         1 1UH      -0.164200
      5 N17         -0.4320    -3.1980    -0.8910 nb         1 1UH      -0.739000
      6 C16         -1.3630    -2.2460    -0.5870 ca         1 1UH       0.361900
      7 C15         -1.0670    -0.9020    -0.2000 ca         1 1UH      -0.043000
      8 C13          0.3090    -0.5760    -0.1510 ca         1 1UH      -0.034800
      9 C14          1.0510     0.6440     0.1330 cc         1 1UH      -0.228200
     10 C10          2.3910     0.3000    -0.0080 cd         1 1UH       0.098900
     11 C3           3.6140     1.1350     0.1190 ca         1 1UH      -0.011800
     12 C5           3.4710     2.5140     0.4150 ca         1 1UH      -0.076000
     13 C6           4.5920     3.3590     0.5480 ca         1 1UH      -0.119000
     14 C4           5.8870     2.8420     0.3880 ca         1 1UH      -0.058000
     15 C1           4.9380     0.6380    -0.0370 ca         1 1UH      -0.140000
     16 S9           5.4320    -1.0530    -0.4020 ss         1 1UH       0.096400
     17 C8           7.1460    -0.5660    -0.3700 cc         1 1UH      -0.167400
     18 C7           7.2730     0.7780    -0.0960 cd         1 1UH      -0.174200
     19 C2           6.0290     1.4810     0.0970 ca         1 1UH      -0.078800
     20 C20         -2.1470     0.0490     0.1290 cc         1 1UH      -0.143000
     21 C24         -3.4590    -0.2310    -0.1300 cd         1 1UH      -0.163000
     22 N23         -4.1520     0.9120     0.2860 na         1 1UH       0.134800
     23 N22         -3.3190     1.9010     0.7880 nd         1 1UH      -0.528800
     24 C21         -2.1290     1.3490     0.6720 cc         1 1UH       0.252900
     25 C25         -5.6230     1.0950     0.2110 c6         1 1UH       0.098300
     26 C30         -6.1290     1.0470    -1.2550 c6         1 1UH      -0.131400
     27 C29         -7.6650     1.2100    -1.3070 c6         1 1UH       0.151800
     28 N28         -8.3300     0.1860    -0.4650 n7         1 1UH      -0.847400
     29 C27         -7.9010     0.2340     0.9540 c6         1 1UH       0.151800
     30 C26         -6.3720     0.0440     1.0710 c6         1 1UH      -0.131400
     31 H1           1.2410    -4.6130    -1.6310 hn         1 1UH       0.473000
     32 H2           2.6160    -3.5900    -1.4250 hn         1 1UH       0.473000
     33 H3          -2.3930    -2.5930    -0.6470 h4         1 1UH       0.016100
     34 H4           0.6770     1.6320     0.3630 ha         1 1UH       0.218000
     35 H5           2.4850     2.9490     0.5460 ha         1 1UH       0.118000
     36 H6           4.4540     4.4130     0.7750 ha         1 1UH       0.119000
     37 H7           6.7590     3.4860     0.4880 ha         1 1UH       0.119000
     38 H8           7.9170    -1.3070    -0.5530 h4         1 1UH       0.217000
     39 H9           8.2420     1.2680    -0.0320 ha         1 1UH       0.205000
     40 H10         -3.9530    -1.0920    -0.5610 h4         1 1UH       0.154000
     41 H11         -1.2800     1.9200     1.0130 h4         1 1UH       0.039100
     42 H12         -5.8540     2.0910     0.6170 h1         1 1UH       0.084700
     43 H13         -5.6530     1.8440    -1.8420 hc         1 1UH       0.057950
     44 H14         -5.8450     0.0970    -1.7270 hc         1 1UH       0.057950
     45 H15         -7.9410     2.2160    -0.9540 h1         1 1UH       0.058450
     46 H16         -8.0110     1.1190    -2.3480 h1         1 1UH       0.058450
     47 H17         -8.1020    -0.7430    -0.8420 hn         1 1UH       0.407000
     48 H19         -8.1870     1.2020     1.3950 h1         1 1UH       0.058450
     49 H20         -8.4170    -0.5520     1.5260 h1         1 1UH       0.058450
     50 H21         -6.1040    -0.9730     0.7520 hc         1 1UH       0.057950
     51 H22         -6.0680     0.1340     2.1230 hc         1 1UH       0.057950
@<TRIPOS>BOND
     1     1     2 1   
     2     1    31 1   
     3     1    32 1   
     4     2     3 ar  
     5     2     5 ar  
     6     3     4 1   
     7     3     8 ar  
     8     4    10 1   
     9     5     6 ar  
    10     6     7 ar  
    11     6    33 1   
    12     7     8 ar  
    13     7    20 1   
    14     8     9 1   
    15     9    10 2   
    16     9    34 1   
    17    10    11 1   
    18    11    12 ar  
    19    11    15 ar  
    20    12    13 ar  
    21    12    35 1   
    22    13    14 ar  
    23    13    36 1   
    24    14    19 ar  
    25    14    37 1   
    26    15    16 1   
    27    15    19 ar  
    28    16    17 1   
    29    17    18 2   
    30    17    38 1   
    31    18    19 1   
    32    18    39 1   
    33    20    21 2   
    34    20    24 1   
    35    21    22 1   
    36    21    40 1   
    37    22    23 1   
    38    22    25 1   
    39    23    24 2   
    40    24    41 1   
    41    25    26 1   
    42    25    30 1   
    43    25    42 1   
    44    26    27 1   
    45    26    43 1   
    46    26    44 1   
    47    27    28 1   
    48    27    45 1   
    49    27    46 1   
    50    28    29 1   
    51    28    47 1   
    52    29    30 1   
    53    29    48 1   
    54    29    49 1   
    55    30    50 1   
    56    30    51 1   
@<TRIPOS>SUBSTRUCTURE
     1 1UH         1 TEMP              0 ****  ****    0 ROOT
