@<TRIPOS>MOLECULE
1UI
   63    67     1     0     0
SMALL
bcc


@<TRIPOS>ATOM
      1 O1          14.3190   -13.5990     6.0110 o          1 1UI      -0.612100
      2 C24         17.6170    -7.1410     1.2220 cx         1 1UI      -0.115400
      3 C23         16.7290    -7.6810     2.2970 cx         1 1UI      -0.132700
      4 C22         17.4950    -6.0420     3.9670 c1         1 1UI       0.226700
      5 N2          12.4470   -10.7420     6.9290 nb         1 1UI      -0.700000
      6 C12         13.4240   -12.9160     6.4880 c          1 1UI       0.576600
      7 C5          16.7200   -15.7710    11.3500 ca         1 1UI      -0.123000
      8 C2          18.6880   -16.7160    10.3780 ca         1 1UI       0.323200
      9 C1          18.0810   -16.0480    11.4410 ca         1 1UI       0.024800
     10 C           20.1050   -15.8620    12.6610 c3         1 1UI       0.124700
     11 N1          12.3510   -13.4020     7.1220 ns         1 1UI      -0.551900
     12 N           18.0090   -17.1000     9.3020 nb         1 1UI      -0.639000
     13 C3          16.7180   -16.8380     9.2220 ca         1 1UI       0.380200
     14 C4          16.0130   -16.1650    10.2240 cp         1 1UI      -0.119300
     15 C6          14.5720   -15.8830    10.0820 cp         1 1UI      -0.010000
     16 C7          13.7270   -15.9660    11.1890 ca         1 1UI      -0.154000
     17 C8          12.3870   -15.6880    11.0250 ca         1 1UI       0.132900
     18 C25         16.2080    -6.6430     1.3580 cx         1 1UI      -0.115400
     19 C26         15.6560    -7.5530     4.5210 c          1 1UI       0.725500
     20 C27         14.0380   -15.5270     8.8450 ca         1 1UI      -0.112000
     21 C9          11.8440   -15.3310     9.8060 ca         1 1UI      -0.157000
     22 C10         12.6830   -15.2480     8.7010 ca         1 1UI      -0.090300
     23 C11         12.1330   -14.8090     7.3650 c3         1 1UI       0.149300
     24 C13         13.4580   -11.4140     6.3900 ca         1 1UI       0.378800
     25 C14         14.5270   -10.8160     5.7560 ca         1 1UI      -0.248300
     26 C15         14.5560    -9.4220     5.6730 ca         1 1UI       0.108600
     27 C16         13.4980    -8.7170     6.2380 ca         1 1UI      -0.254300
     28 C17         12.4630    -9.4180     6.8560 ca         1 1UI       0.445600
     29 C18         11.3220    -8.6700     7.4750 c3         1 1UI      -0.148400
     30 C19         16.8780    -9.5480     4.7890 c5         1 1UI       0.095000
     31 C20         17.8750    -8.4600     4.4150 c5         1 1UI      -0.082400
     32 C21         16.9870    -7.3910     3.7710 c5         1 1UI      -0.041900
     33 N3          15.6460    -8.8070     5.0570 n          1 1UI      -0.386000
     34 N4          17.9060    -4.9800     4.1220 n1         1 1UI      -0.342800
     35 H1          17.8560    -7.8020     0.4000 hc         1 1UI       0.080950
     36 H2          18.4210    -6.4700     1.4990 hc         1 1UI       0.080950
     37 H3          16.3610    -8.6910     2.1410 hc         1 1UI       0.087700
     38 H4          16.2330   -15.2290    12.1530 ha         1 1UI       0.153000
     39 H5          19.7450   -16.9530    10.3840 h4         1 1UI       0.022100
     40 H6          20.4090   -15.4420    13.6150 h1         1 1UI       0.044033
     41 H7          20.3500   -16.9270    12.6500 h1         1 1UI       0.044033
     42 H8          20.6600   -15.3630    11.8620 h1         1 1UI       0.044033
     43 H9          11.6990   -12.7310     7.5030 hn         1 1UI       0.346500
     44 H10         16.2050   -17.1910     8.3340 h4         1 1UI       0.027100
     45 H11         14.1010   -16.2630    12.1610 ha         1 1UI       0.154000
     46 H12         16.0620    -5.6350     1.7250 hc         1 1UI       0.080950
     47 H13         15.4740    -6.9560     0.6270 hc         1 1UI       0.080950
     48 H14         14.6860   -15.4420     7.9820 ha         1 1UI       0.157000
     49 H15         10.7850   -15.1230     9.7190 ha         1 1UI       0.148000
     50 H16         11.0590   -14.9950     7.3230 h1         1 1UI       0.065700
     51 H17         12.5920   -15.3820     6.5610 h1         1 1UI       0.065700
     52 H18         15.3070   -11.4340     5.3370 ha         1 1UI       0.167000
     53 H19         13.4620    -7.6400     6.2260 ha         1 1UI       0.172000
     54 H20         10.6040    -9.3580     7.9150 hc         1 1UI       0.055700
     55 H21         11.6760    -7.9960     8.2560 hc         1 1UI       0.055700
     56 H22         10.8060    -8.0580     6.7340 hc         1 1UI       0.055700
     57 H23         16.7290   -10.2660     3.9790 h1         1 1UI       0.064200
     58 H24         17.1920   -10.0940     5.6780 h1         1 1UI       0.064200
     59 H25         18.6480    -8.8190     3.7380 hc         1 1UI       0.075200
     60 H26         18.3550    -8.0720     5.3140 hc         1 1UI       0.075200
     61 O2          14.7840    -6.7210     4.5610 o          1 1UI      -0.569500
     62 F           11.5780   -15.7770    12.0910 f          1 1UI      -0.142900
     63 O           18.7110   -15.6400    12.5520 os         1 1UI      -0.311900
@<TRIPOS>BOND
     1     1     6 2   
     2     2     3 1   
     3     2    18 1   
     4     2    35 1   
     5     2    36 1   
     6     3    18 1   
     7     3    32 1   
     8     3    37 1   
     9     4    32 1   
    10     4    34 3   
    11     5    24 ar  
    12     5    28 ar  
    13     6    11 1   
    14     6    24 1   
    15     7     9 ar  
    16     7    14 ar  
    17     7    38 1   
    18     8     9 ar  
    19     8    12 ar  
    20     8    39 1   
    21     9    63 1   
    22    10    40 1   
    23    10    41 1   
    24    10    42 1   
    25    10    63 1   
    26    11    23 1   
    27    11    43 1   
    28    12    13 ar  
    29    13    14 ar  
    30    13    44 1   
    31    14    15 1   
    32    15    16 ar  
    33    15    20 ar  
    34    16    17 ar  
    35    16    45 1   
    36    17    21 ar  
    37    17    62 1   
    38    18    46 1   
    39    18    47 1   
    40    19    32 1   
    41    19    33 1   
    42    19    61 2   
    43    20    22 ar  
    44    20    48 1   
    45    21    22 ar  
    46    21    49 1   
    47    22    23 1   
    48    23    50 1   
    49    23    51 1   
    50    24    25 ar  
    51    25    26 ar  
    52    25    52 1   
    53    26    27 ar  
    54    26    33 1   
    55    27    28 ar  
    56    27    53 1   
    57    28    29 1   
    58    29    54 1   
    59    29    55 1   
    60    29    56 1   
    61    30    31 1   
    62    30    33 1   
    63    30    57 1   
    64    30    58 1   
    65    31    32 1   
    66    31    59 1   
    67    31    60 1   
@<TRIPOS>SUBSTRUCTURE
     1 1UI         1 TEMP              0 ****  ****    0 ROOT
