@<TRIPOS>MOLECULE
1UI
   63    67     1     0     0
SMALL
No Charge or Current Charge


@<TRIPOS>ATOM
      1 O1          14.3470   -13.5490     6.0500 o          1 1UI      -0.612100
      2 C24         17.8510    -7.0520     1.1000 cx         1 1UI      -0.115400
      3 C23         16.8820    -7.7190     2.0600 cx         1 1UI      -0.132700
      4 C22         16.9130    -5.6160     3.5610 c1         1 1UI       0.315900
      5 N2          12.4420   -10.6080     7.0070 nb         1 1UI      -0.700000
      6 C12         13.4670   -12.8390     6.5290 c          1 1UI       0.509600
      7 C5          16.7670   -16.1010    11.5160 ca         1 1UI      -0.105000
      8 C2          18.7200   -17.1070    10.4900 ca         1 1UI       0.257900
      9 C1          18.1180   -16.4730    11.6070 ca         1 1UI       0.090100
     10 C           20.1830   -16.5460    12.9530 c3         1 1UI       0.147900
     11 N1          12.3840   -13.3870     7.1890 ns         1 1UI      -0.484900
     12 N           18.0540   -17.3710     9.3400 nb         1 1UI      -0.639000
     13 C3          16.7520   -17.0040     9.2690 ca         1 1UI       0.314900
     14 C4          16.0450   -16.3650    10.3240 cp         1 1UI      -0.054000
     15 C6          14.6020   -15.9870    10.1820 cp         1 1UI      -0.010000
     16 C7          13.7260   -16.0050    11.2960 ca         1 1UI      -0.136000
     17 C8          12.3770   -15.6480    11.1570 ca         1 1UI       0.168000
     18 C25         16.3560    -6.9070     0.8920 cx         1 1UI      -0.115400
     19 C26         15.3500    -7.4490     4.1160 c          1 1UI       0.583000
     20 C27         14.0660   -15.5980     8.9270 ca         1 1UI      -0.094000
     21 C9          11.8670   -15.2650     9.9090 ca         1 1UI      -0.139000
     22 C10         12.7100   -15.2390     8.7840 ca         1 1UI      -0.090300
     23 C11         12.1690   -14.8150     7.4260 c3         1 1UI       0.149300
     24 C13         13.4760   -11.3040     6.4490 ca         1 1UI       0.313500
     25 C14         14.5360   -10.6410     5.7930 ca         1 1UI      -0.165000
     26 C15         14.5770    -9.2340     5.7390 ca         1 1UI       0.016000
     27 C16         13.4630    -8.5490     6.2610 ca         1 1UI      -0.171000
     28 C17         12.4420    -9.2630     6.9050 ca         1 1UI       0.380300
     29 C18         11.2510    -8.5480     7.5100 c3         1 1UI      -0.148400
     30 C19         16.9530    -9.1000     4.8510 c5         1 1UI       0.095000
     31 C20         17.7480    -7.8470     4.3900 c5         1 1UI      -0.082400
     32 C21         16.7110    -7.0860     3.4960 c5         1 1UI      -0.041900
     33 N3          15.5740    -8.5780     4.9300 n          1 1UI      -0.226400
     34 N4          17.1000    -4.4690     3.6430 n1         1 1UI      -0.432000
     35 H1          18.3930    -7.6950     0.4100 hc         1 1UI       0.080950
     36 H2          18.4130    -6.1750     1.4140 hc         1 1UI       0.080950
     37 H3          16.7770    -8.7980     1.9690 hc         1 1UI       0.087700
     38 H4          16.2940   -15.6020    12.3560 ha         1 1UI       0.135000
     39 H5          19.7640   -17.4160    10.5060 h4         1 1UI       0.022100
     40 H6          20.5290   -16.2450    13.9500 h1         1 1UI       0.044033
     41 H7          20.3290   -17.6300    12.8560 h1         1 1UI       0.044033
     42 H8          20.8090   -16.0390    12.2080 h1         1 1UI       0.044033
     43 H9          11.7130   -12.7190     7.5560 hn         1 1UI       0.346500
     44 H10         16.2480   -17.2440     8.3330 h4         1 1UI       0.027100
     45 H11         14.0870   -16.3100    12.2740 ha         1 1UI       0.136000
     46 H12         15.9070    -5.9320     1.0680 hc         1 1UI       0.080950
     47 H13         15.9100    -7.4520     0.0630 hc         1 1UI       0.080950
     48 H14         14.7130   -15.5560     8.0540 ha         1 1UI       0.139000
     49 H15         10.8190   -14.9890     9.8210 ha         1 1UI       0.130000
     50 H16         11.0920   -15.0200     7.3760 h1         1 1UI       0.065700
     51 H17         12.6520   -15.4000     6.6310 h1         1 1UI       0.065700
     52 H18         15.3200   -11.2330     5.3310 ha         1 1UI       0.149000
     53 H19         13.3930    -7.4680     6.2070 ha         1 1UI       0.154000
     54 H20         10.8310    -9.1080     8.3550 hc         1 1UI       0.055700
     55 H21         11.5330    -7.5550     7.8810 hc         1 1UI       0.055700
     56 H22         10.4590    -8.4170     6.7650 hc         1 1UI       0.055700
     57 H23         17.0170    -9.9120     4.1150 h1         1 1UI       0.064200
     58 H24         17.3090    -9.4790     5.8180 h1         1 1UI       0.064200
     59 H25         18.6840    -8.1000     3.8770 hc         1 1UI       0.075200
     60 H26         18.0250    -7.2530     5.2710 hc         1 1UI       0.075200
     61 O2          14.2710    -6.8960     3.9370 o          1 1UI      -0.494000
     62 F           11.5620   -15.6760    12.2340 f          1 1UI      -0.178000
     63 O           18.7970   -16.1990    12.7800 os         1 1UI      -0.335100
@<TRIPOS>BOND
     1     1     6 2   
     2     2     3 1   
     3     2    18 1   
     4     2    35 1   
     5     2    36 1   
     6     3    18 1   
     7     3    32 1   
     8     3    37 1   
     9     4    32 1   
    10     4    34 3   
    11     5    24 ar  
    12     5    28 ar  
    13     6    11 1   
    14     6    24 1   
    15     7     9 ar  
    16     7    14 ar  
    17     7    38 1   
    18     8     9 ar  
    19     8    12 ar  
    20     8    39 1   
    21     9    63 1   
    22    10    40 1   
    23    10    41 1   
    24    10    42 1   
    25    10    63 1   
    26    11    23 1   
    27    11    43 1   
    28    12    13 ar  
    29    13    14 ar  
    30    13    44 1   
    31    14    15 1   
    32    15    16 ar  
    33    15    20 ar  
    34    16    17 ar  
    35    16    45 1   
    36    17    21 ar  
    37    17    62 1   
    38    18    46 1   
    39    18    47 1   
    40    19    32 1   
    41    19    33 1   
    42    19    61 2   
    43    20    22 ar  
    44    20    48 1   
    45    21    22 ar  
    46    21    49 1   
    47    22    23 1   
    48    23    50 1   
    49    23    51 1   
    50    24    25 ar  
    51    25    26 ar  
    52    25    52 1   
    53    26    27 ar  
    54    26    33 1   
    55    27    28 ar  
    56    27    53 1   
    57    28    29 1   
    58    29    54 1   
    59    29    55 1   
    60    29    56 1   
    61    30    31 1   
    62    30    33 1   
    63    30    57 1   
    64    30    58 1   
    65    31    32 1   
    66    31    59 1   
    67    31    60 1   
@<TRIPOS>SUBSTRUCTURE
     1 1UI         1 TEMP              0 ****  ****    0 ROOT
