@<TRIPOS>MOLECULE
1UJ
   27    28     1     0     0
SMALL
abcg2


@<TRIPOS>ATOM
      1 O2           4.3650    -1.8190     0.0950 o          1 1UJ      -0.505100
      2 C7           4.6250    -0.6420     0.0400 c          1 1UJ       0.607100
      3 C8           6.0200    -0.0820     0.0010 c3         1 1UJ      -0.185100
      4 N1           3.6540     0.3460    -0.0080 ns         1 1UJ      -0.421400
      5 C6           2.3010     0.1670    -0.0110 cc         1 1UJ       0.493800
      6 N            1.6790    -0.9590    -0.0020 nd         1 1UJ      -0.560100
      7 S            1.2970     1.6120    -0.0280 ss         1 1UJ      -0.021200
      8 C9          -0.0960     0.5790    -0.0210 ca         1 1UJ      -0.207000
      9 C5           0.3240    -0.7620    -0.0070 ca         1 1UJ       0.154400
     10 C4          -0.6370    -1.7720     0.0000 ca         1 1UJ      -0.084000
     11 C3          -1.9750    -1.4310    -0.0060 ca         1 1UJ      -0.052000
     12 C10         -1.4310     0.9310    -0.0260 ca         1 1UJ      -0.005000
     13 C2          -2.3800    -0.0870    -0.0180 ca         1 1UJ      -0.148600
     14 C1          -3.8090     0.3080    -0.0220 c          1 1UJ       0.607700
     15 O1          -4.1880     1.4560    -0.0270 o          1 1UJ      -0.493000
     16 O           -4.6270    -0.7310    -0.0200 os         1 1UJ      -0.438100
     17 C           -6.0300    -0.4700    -0.0230 c3         1 1UJ       0.153900
     18 H1           6.2080     0.3840    -0.9680 hc         1 1UJ       0.068033
     19 H2           6.1610     0.6840     0.7650 hc         1 1UJ       0.068033
     20 H3           6.7450    -0.8750     0.1550 hc         1 1UJ       0.068033
     21 H4           3.9870     1.2980    -0.0440 hn         1 1UJ       0.330500
     22 H5          -0.3300    -2.8090     0.0100 ha         1 1UJ       0.141000
     23 H6          -2.7110    -2.2210     0.0000 ha         1 1UJ       0.135000
     24 H7          -1.7360     1.9690    -0.0360 ha         1 1UJ       0.146000
     25 H8          -6.3330     0.0880     0.8630 h1         1 1UJ       0.049700
     26 H9          -6.3320     0.0770    -0.9150 h1         1 1UJ       0.049700
     27 H10         -6.5120    -1.4440    -0.0170 h1         1 1UJ       0.049700
@<TRIPOS>BOND
     1     1     2 2   
     2     2     3 1   
     3     2     4 1   
     4     3    18 1   
     5     3    19 1   
     6     3    20 1   
     7     4     5 1   
     8     4    21 1   
     9     5     6 2   
    10     5     7 1   
    11     6     9 1   
    12     7     8 1   
    13     8     9 ar  
    14     8    12 ar  
    15     9    10 ar  
    16    10    11 ar  
    17    10    22 1   
    18    11    13 ar  
    19    11    23 1   
    20    12    13 ar  
    21    12    24 1   
    22    13    14 1   
    23    14    15 2   
    24    14    16 1   
    25    16    17 1   
    26    17    25 1   
    27    17    26 1   
    28    17    27 1   
@<TRIPOS>SUBSTRUCTURE
     1 1UJ         1 TEMP              0 ****  ****    0 ROOT
