@<TRIPOS>MOLECULE
1UJ
   27    28     1     0     0
SMALL
No Charge or Current Charge


@<TRIPOS>ATOM
      1 O2           4.4440    -1.8480     0.0450 o          1 1UJ      -0.505100
      2 C7           4.6680    -0.6470     0.0150 c          1 1UJ       0.607100
      3 C8           6.0940    -0.1070     0.0060 c3         1 1UJ      -0.185100
      4 N1           3.7010     0.3320    -0.0130 ns         1 1UJ      -0.421400
      5 C6           2.3270     0.2090    -0.0140 cc         1 1UJ       0.493800
      6 N            1.7100    -0.9790     0.0140 nd         1 1UJ      -0.560100
      7 S            1.3060     1.6690    -0.0540 ss         1 1UJ      -0.021200
      8 C9          -0.0580     0.5690    -0.0300 ca         1 1UJ      -0.207000
      9 C5           0.3410    -0.7480     0.0040 ca         1 1UJ       0.154400
     10 C4          -0.6220    -1.7660     0.0270 ca         1 1UJ      -0.084000
     11 C3          -1.9910    -1.4300     0.0150 ca         1 1UJ      -0.052000
     12 C10         -1.4120     0.9400    -0.0440 ca         1 1UJ      -0.005000
     13 C2          -2.4000    -0.0710    -0.0210 ca         1 1UJ      -0.148600
     14 C1          -3.8610     0.3130    -0.0350 c          1 1UJ       0.607700
     15 O1          -4.2410     1.4770    -0.0660 o          1 1UJ      -0.493000
     16 O           -4.7160    -0.7600    -0.0110 os         1 1UJ      -0.438100
     17 C           -6.1330    -0.5030    -0.0210 c3         1 1UJ       0.153900
     18 H1           6.2240     0.5460    -0.8650 hc         1 1UJ       0.068033
     19 H2           6.2190     0.5890     0.8430 hc         1 1UJ       0.068033
     20 H3           6.8460    -0.9040     0.0280 hc         1 1UJ       0.068033
     21 H4           4.0650     1.2740    -0.0360 hn         1 1UJ       0.330500
     22 H5          -0.3120    -2.8070     0.0550 ha         1 1UJ       0.141000
     23 H6          -2.7250    -2.2330     0.0330 ha         1 1UJ       0.135000
     24 H7          -1.6880     1.9930    -0.0720 ha         1 1UJ       0.146000
     25 H8          -6.4300     0.0900     0.8540 h1         1 1UJ       0.049700
     26 H9          -6.4250     0.0440    -0.9270 h1         1 1UJ       0.049700
     27 H10         -6.6920    -1.4460     0.0010 h1         1 1UJ       0.049700
@<TRIPOS>BOND
     1     1     2 2   
     2     2     3 1   
     3     2     4 1   
     4     3    18 1   
     5     3    19 1   
     6     3    20 1   
     7     4     5 1   
     8     4    21 1   
     9     5     6 2   
    10     5     7 1   
    11     6     9 1   
    12     7     8 1   
    13     8     9 ar  
    14     8    12 ar  
    15     9    10 ar  
    16    10    11 ar  
    17    10    22 1   
    18    11    13 ar  
    19    11    23 1   
    20    12    13 ar  
    21    12    24 1   
    22    13    14 1   
    23    14    15 2   
    24    14    16 1   
    25    16    17 1   
    26    17    25 1   
    27    17    26 1   
    28    17    27 1   
@<TRIPOS>SUBSTRUCTURE
     1 1UJ         1 TEMP              0 ****  ****    0 ROOT
