@<TRIPOS>MOLECULE
1UK
   36    38     1     0     0
SMALL
No Charge or Current Charge


@<TRIPOS>ATOM
      1 F2          -4.7430    -2.1280    -0.5380 f          1 1UK      -0.115000
      2 C14         -5.0170    -0.8410    -0.2290 c3         1 1UK       0.369300
      3 F           -5.6620    -0.3180    -1.2960 f          1 1UK      -0.115000
      4 F1          -5.9000    -0.8730     0.7950 f          1 1UK      -0.115000
      5 C12         -3.7680    -0.0340     0.1260 ca         1 1UK      -0.330300
      6 C11         -3.8550     1.3050     0.5130 ca         1 1UK       0.663900
      7 N4          -4.9800     2.0020     0.6380 nv         1 1UK      -1.050900
      8 N3          -2.8320     2.0740     0.8300 nb         1 1UK      -0.756000
      9 C10         -1.6010     1.5240     0.7620 ca         1 1UK       0.430900
     10 C13         -2.4800    -0.6050     0.0580 ca         1 1UK       0.029000
     11 C9          -1.3510     0.1820     0.3790 ca         1 1UK      -0.153000
     12 C5           0.0180    -0.3870     0.3260 cc         1 1UK      -0.056000
     13 C4           1.0600     0.5440     0.2070 cd         1 1UK      -0.099000
     14 C6           0.2810    -1.8190     0.2930 cc         1 1UK      -0.097000
     15 C7           1.5600    -2.3200     0.1820 cd         1 1UK      -0.078000
     16 C8           2.5950    -1.3500     0.0950 cd         1 1UK      -0.062000
     17 N1           2.3370    -0.0100     0.1260 na         1 1UK       0.143100
     18 C3           3.4890     0.7180    -0.0060 cd         1 1UK      -0.291100
     19 N2           3.8950    -1.5480    -0.0310 nc         1 1UK      -0.336600
     20 C2           4.4290    -0.2830    -0.0900 cc         1 1UK       0.212200
     21 N            5.7920    -0.1370    -0.2300 ns         1 1UK      -0.390100
     22 C1           6.5340     1.0210    -0.3130 c          1 1UK       0.609100
     23 O            6.0510     2.1440    -0.2700 o          1 1UK      -0.591100
     24 C            8.0350     0.7980    -0.4640 c3         1 1UK      -0.176100
     25 H1          -5.8230     1.4770     0.8300 hn         1 1UK       0.492500
     26 H2          -4.8720     2.8730     1.1400 hn         1 1UK       0.492500
     27 H3          -0.7960     2.1900     1.0620 h4         1 1UK       0.024100
     28 H4          -2.3630    -1.6350    -0.2670 ha         1 1UK       0.137000
     29 H5           0.9880     1.6220     0.1570 h4         1 1UK       0.149000
     30 H6          -0.5390    -2.5210     0.3790 ha         1 1UK       0.125000
     31 H7           1.7630    -3.3860     0.1600 ha         1 1UK       0.145000
     32 H8           3.5490     1.7990    -0.0240 h4         1 1UK       0.259000
     33 H9           6.3380    -0.9860    -0.2800 hn         1 1UK       0.336500
     34 H10          8.3890     0.1700     0.3610 hc         1 1UK       0.064700
     35 H11          8.2150     0.1600    -1.3370 hc         1 1UK       0.064700
     36 H12          8.5960     1.7370    -0.5270 hc         1 1UK       0.064700
@<TRIPOS>BOND
     1     1     2 1   
     2     2     3 1   
     3     2     4 1   
     4     2     5 1   
     5     5     6 ar  
     6     5    10 ar  
     7     6     7 1   
     8     6     8 ar  
     9     7    25 1   
    10     7    26 1   
    11     8     9 ar  
    12     9    11 ar  
    13     9    27 1   
    14    10    11 ar  
    15    10    28 1   
    16    11    12 1   
    17    12    13 2   
    18    12    14 1   
    19    13    17 1   
    20    13    29 1   
    21    14    15 2   
    22    14    30 1   
    23    15    16 1   
    24    15    31 1   
    25    16    17 1   
    26    16    19 2   
    27    17    18 1   
    28    18    20 2   
    29    18    32 1   
    30    19    20 1   
    31    20    21 1   
    32    21    22 1   
    33    21    33 1   
    34    22    23 2   
    35    22    24 1   
    36    24    34 1   
    37    24    35 1   
    38    24    36 1   
@<TRIPOS>SUBSTRUCTURE
     1 1UK         1 TEMP              0 ****  ****    0 ROOT
