@<TRIPOS>MOLECULE
1UK
   36    38     1     0     0
SMALL
bcc


@<TRIPOS>ATOM
      1 F2          -4.5370    -1.9690    -0.9470 f          1 1UK      -0.236300
      2 C14         -4.8880    -0.7660    -0.4880 c3         1 1UK       0.733200
      3 F           -5.4730    -0.1160    -1.5060 f          1 1UK      -0.236300
      4 F1          -5.8500    -0.9690     0.4300 f          1 1UK      -0.236300
      5 C12         -3.7320    -0.0070     0.0700 ca         1 1UK      -0.395600
      6 C11         -3.9070     1.2740     0.6470 ca         1 1UK       0.729200
      7 N4          -5.1030     1.9010     0.7280 nv         1 1UK      -0.940500
      8 N3          -2.8600     1.9550     1.1130 nb         1 1UK      -0.756000
      9 C10         -1.6490     1.4370     1.0280 ca         1 1UK       0.496200
     10 C13         -2.4540    -0.5250    -0.0070 ca         1 1UK       0.011000
     11 C9          -1.3630     0.1950     0.4700 ca         1 1UK      -0.218300
     12 C5           0.0100    -0.3250     0.3940 cc         1 1UK      -0.056000
     13 C4           1.0500     0.5160     0.1200 cd         1 1UK      -0.066300
     14 C6           0.2870    -1.7050     0.6060 cc         1 1UK      -0.115000
     15 C7           1.5610    -2.1860     0.5480 cd         1 1UK      -0.096000
     16 C8           2.6190    -1.2980     0.2810 cd         1 1UK      -0.011300
     17 N1           2.3190     0.0340     0.0770 na         1 1UK       0.041700
     18 C3           3.5020     0.6900    -0.1660 cd         1 1UK      -0.241100
     19 N2           3.9200    -1.5080     0.1830 nc         1 1UK      -0.336600
     20 C2           4.4570    -0.2980    -0.0870 cc         1 1UK       0.212200
     21 N            5.8290    -0.2130    -0.2370 ns         1 1UK      -0.457100
     22 C1           6.5320     0.9130    -0.5140 c          1 1UK       0.676100
     23 O            5.9930     1.9940    -0.6750 o          1 1UK      -0.591100
     24 C            8.0220     0.7270    -0.6120 c3         1 1UK      -0.176100
     25 H1          -5.9680     1.3910     0.7100 hn         1 1UK       0.437300
     26 H2          -5.1240     2.7360     1.2920 hn         1 1UK       0.437300
     27 H3          -0.8500     2.0400     1.4480 h4         1 1UK       0.024100
     28 H4          -2.2910    -1.4950    -0.4600 ha         1 1UK       0.155000
     29 H5           0.9320     1.5710    -0.0860 h4         1 1UK       0.167000
     30 H6          -0.5260    -2.3820     0.8350 ha         1 1UK       0.143000
     31 H7           1.7820    -3.2310     0.7120 ha         1 1UK       0.163000
     32 H8           3.5430     1.7460    -0.3520 h4         1 1UK       0.209000
     33 H9           6.3280    -1.0800    -0.1070 hn         1 1UK       0.336500
     34 H10          8.3530    -0.2850    -0.3890 hc         1 1UK       0.064700
     35 H11          8.3520     0.9850    -1.6190 hc         1 1UK       0.064700
     36 H12          8.5160     1.4120     0.0760 hc         1 1UK       0.064700
@<TRIPOS>BOND
     1     1     2 1   
     2     2     3 1   
     3     2     4 1   
     4     2     5 1   
     5     5     6 ar  
     6     5    10 ar  
     7     6     7 1   
     8     6     8 ar  
     9     7    25 1   
    10     7    26 1   
    11     8     9 ar  
    12     9    11 ar  
    13     9    27 1   
    14    10    11 ar  
    15    10    28 1   
    16    11    12 1   
    17    12    13 2   
    18    12    14 1   
    19    13    17 1   
    20    13    29 1   
    21    14    15 2   
    22    14    30 1   
    23    15    16 1   
    24    15    31 1   
    25    16    17 1   
    26    16    19 2   
    27    17    18 1   
    28    18    20 2   
    29    18    32 1   
    30    19    20 1   
    31    20    21 1   
    32    21    22 1   
    33    21    33 1   
    34    22    23 2   
    35    22    24 1   
    36    24    34 1   
    37    24    35 1   
    38    24    36 1   
@<TRIPOS>SUBSTRUCTURE
     1 1UK         1 TEMP              0 ****  ****    0 ROOT
