@<TRIPOS>MOLECULE
1UL
   54    59     1     0     0
SMALL
No Charge or Current Charge


@<TRIPOS>ATOM
      1 O1          -8.5240     0.2970     2.0450 o          1 1UL      -0.598100
      2 C1          -8.3060     0.4250     0.8470 c          1 1UL       0.608100
      3 C23         -8.9820     1.5570     0.0710 c3         1 1UL      -0.177100
      4 N1          -7.4600    -0.4800     0.1600 n          1 1UL      -0.417800
      5 C22         -6.7640    -1.5940     0.8570 c6         1 1UL       0.098500
      6 C21         -5.2380    -1.3450     0.8860 c6         1 1UL      -0.115900
      7 C4          -4.6900    -1.1290    -0.5500 c6         1 1UL       0.096300
      8 C3          -5.4770    -0.0030    -1.2730 c6         1 1UL      -0.115900
      9 C2          -6.9950    -0.2920    -1.2430 c6         1 1UL       0.098500
     10 N2          -3.2320    -0.8510    -0.5390 na         1 1UL       0.134800
     11 C7          -2.6370     0.2460     0.0810 cc         1 1UL      -0.160000
     12 C6          -1.2940     0.0880    -0.1410 cd         1 1UL      -0.144000
     13 C5          -1.1710    -1.0820    -0.9300 cd         1 1UL       0.253900
     14 N3          -2.3250    -1.6710    -1.1730 nc         1 1UL      -0.527800
     15 C8          -0.2380     1.0350     0.2810 ca         1 1UL      -0.044000
     16 C14         -0.5820     2.3160     0.8010 ca         1 1UL       0.365900
     17 N4           0.3190     3.2630     1.1940 nb         1 1UL      -0.738000
     18 C13          1.6090     2.9520     1.0820 ca         1 1UL       0.620900
     19 N5           2.3970     3.9520     1.5060 nv         1 1UL      -1.040900
     20 C12          2.0640     1.7130     0.6020 ca         1 1UL      -0.048900
     21 C9           1.1470     0.7670     0.2110 ca         1 1UL      -0.036800
     22 O2           3.3800     1.2970     0.4840 os         1 1UL      -0.166200
     23 C11          3.2630    -0.0040     0.0080 cc         1 1UL       0.086900
     24 C10          1.9440    -0.3660    -0.1640 cd         1 1UL      -0.214200
     25 C15          4.4130    -0.8870    -0.2170 ca         1 1UL       0.001200
     26 C20          5.6060    -0.7790     0.5290 ca         1 1UL      -0.184000
     27 S            5.9810     0.3270     1.8350 ss         1 1UL       0.279500
     28 N7           7.5160    -0.3700     1.9920 nc         1 1UL      -0.117500
     29 N6           7.7750    -1.3670     1.1570 nd         1 1UL      -0.153400
     30 C19          6.6860    -1.6040     0.3250 ca         1 1UL       0.014400
     31 C18          6.6400    -2.6000    -0.6630 ca         1 1UL      -0.022000
     32 C17          5.4690    -2.7400    -1.4330 ca         1 1UL      -0.120000
     33 C16          4.3640    -1.8910    -1.2120 ca         1 1UL      -0.059000
     34 H1          -8.2110     2.1900    -0.3810 hc         1 1UL       0.061033
     35 H2          -9.5010     1.1410    -0.7990 hc         1 1UL       0.061033
     36 H3          -9.6590     2.1480     0.6980 hc         1 1UL       0.061033
     37 H4          -7.1360    -1.7150     1.8840 h1         1 1UL       0.061450
     38 H5          -6.9730    -2.5340     0.3260 h1         1 1UL       0.061450
     39 H6          -5.0290    -0.4660     1.5110 hc         1 1UL       0.063700
     40 H7          -4.7310    -2.1980     1.3590 hc         1 1UL       0.063700
     41 H8          -4.8430    -2.0620    -1.1130 h1         1 1UL       0.083700
     42 H9          -5.2840     0.9670    -0.7930 hc         1 1UL       0.063700
     43 H10         -5.1360     0.0860    -2.3140 hc         1 1UL       0.063700
     44 H11         -7.2020    -1.2110    -1.8110 h1         1 1UL       0.061450
     45 H12         -7.5300     0.5190    -1.7530 h1         1 1UL       0.061450
     46 H13         -3.2030     1.0030     0.6080 h4         1 1UL       0.156000
     47 H14         -0.2820    -1.5150    -1.3620 h4         1 1UL       0.039100
     48 H15         -1.6260     2.6110     0.8950 h4         1 1UL       0.018100
     49 H16          1.9320     4.6590     2.0640 hn         1 1UL       0.476000
     50 H17          3.3490     3.7180     1.7620 hn         1 1UL       0.476000
     51 H18          1.6060    -1.3530    -0.4530 ha         1 1UL       0.219000
     52 H19          7.4930    -3.2530    -0.8280 ha         1 1UL       0.141000
     53 H20          5.4180    -3.5060    -2.2040 ha         1 1UL       0.127000
     54 H21          3.4740    -2.0100    -1.8250 ha         1 1UL       0.124000
@<TRIPOS>BOND
     1     1     2 2   
     2     2     3 1   
     3     2     4 1   
     4     3    34 1   
     5     3    35 1   
     6     3    36 1   
     7     4     5 1   
     8     4     9 1   
     9     5     6 1   
    10     5    37 1   
    11     5    38 1   
    12     6     7 1   
    13     6    39 1   
    14     6    40 1   
    15     7     8 1   
    16     7    10 1   
    17     7    41 1   
    18     8     9 1   
    19     8    42 1   
    20     8    43 1   
    21     9    44 1   
    22     9    45 1   
    23    10    11 1   
    24    10    14 1   
    25    11    12 2   
    26    11    46 1   
    27    12    13 1   
    28    12    15 1   
    29    13    14 2   
    30    13    47 1   
    31    15    16 ar  
    32    15    21 ar  
    33    16    17 ar  
    34    16    48 1   
    35    17    18 ar  
    36    18    19 1   
    37    18    20 ar  
    38    19    49 1   
    39    19    50 1   
    40    20    21 ar  
    41    20    22 1   
    42    21    24 1   
    43    22    23 1   
    44    23    24 2   
    45    23    25 1   
    46    24    51 1   
    47    25    26 ar  
    48    25    33 ar  
    49    26    27 1   
    50    26    30 ar  
    51    27    28 1   
    52    28    29 2   
    53    29    30 1   
    54    30    31 ar  
    55    31    32 ar  
    56    31    52 1   
    57    32    33 ar  
    58    32    53 1   
    59    33    54 1   
@<TRIPOS>SUBSTRUCTURE
     1 1UL         1 TEMP              0 ****  ****    0 ROOT
