@<TRIPOS>MOLECULE
1UL
   54    59     1     0     0
SMALL
bcc


@<TRIPOS>ATOM
      1 O1          -7.8600    -1.5200     2.2670 o          1 1UL      -0.598100
      2 C1          -7.8620    -0.6580     1.3970 c          1 1UL       0.675100
      3 C23         -8.6200     0.6350     1.5960 c3         1 1UL      -0.177100
      4 N1          -7.2100    -0.8220     0.2230 n          1 1UL      -0.484800
      5 C22         -6.3970    -1.9990    -0.0280 c6         1 1UL       0.098500
      6 C21         -4.9240    -1.6230    -0.1290 c6         1 1UL      -0.115900
      7 C4          -4.7270    -0.5400    -1.1880 c6         1 1UL       0.067000
      8 C3          -5.6210     0.6610    -0.9060 c6         1 1UL      -0.115900
      9 C2          -7.0710     0.1970    -0.7990 c6         1 1UL       0.098500
     10 N2          -3.3260    -0.1700    -1.3010 na         1 1UL       0.113400
     11 C7          -2.6530     0.7670    -0.6090 cc         1 1UL      -0.127300
     12 C6          -1.3210     0.6490    -0.9570 cd         1 1UL      -0.209300
     13 C5          -1.3110    -0.4220    -1.8720 cd         1 1UL       0.319200
     14 N3          -2.5230    -0.9040    -2.0650 nc         1 1UL      -0.527800
     15 C8          -0.2040     1.4600    -0.4870 ca         1 1UL      -0.109300
     16 C14         -0.3170     2.8190    -0.2550 ca         1 1UL       0.431200
     17 N4           0.6550     3.6210     0.2000 nb         1 1UL      -0.738000
     18 C13          1.8590     3.1340     0.4570 ca         1 1UL       0.686200
     19 N5           2.8490     3.9730     0.8680 nv         1 1UL      -0.930500
     20 C12          2.0670     1.7680     0.2390 ca         1 1UL      -0.114200
     21 C9           1.0700     0.9230    -0.2170 ca         1 1UL      -0.036800
     22 O2           3.2100     1.0780     0.4580 os         1 1UL      -0.166200
     23 C11          2.9510    -0.2160     0.1500 cc         1 1UL       0.086900
     24 C10          1.6670    -0.3750    -0.2660 cd         1 1UL      -0.164200
     25 C15          4.0500    -1.1430     0.3260 ca         1 1UL       0.001200
     26 C20          5.3010    -0.7220     0.8010 ca         1 1UL      -0.057100
     27 S            5.8940     0.8150     1.2670 ss         1 1UL       0.152600
     28 N7           7.4220     0.1690     1.6420 nc         1 1UL      -0.117500
     29 N6           7.5030    -1.0650     1.4460 nd         1 1UL      -0.153400
     30 C19          6.3470    -1.6370     0.9720 ca         1 1UL       0.014400
     31 C18          6.1840    -2.9910     0.6780 ca         1 1UL      -0.040000
     32 C17          4.9550    -3.4030     0.2100 ca         1 1UL      -0.138000
     33 C16          3.9090    -2.4930     0.0370 ca         1 1UL      -0.077000
     34 H1          -7.9550     1.5000     1.5900 hc         1 1UL       0.061033
     35 H2          -9.3680     0.7930     0.8190 hc         1 1UL       0.061033
     36 H3          -9.1260     0.6020     2.5570 hc         1 1UL       0.061033
     37 H4          -6.5540    -2.7290     0.7600 h1         1 1UL       0.061450
     38 H5          -6.7270    -2.4540    -0.9680 h1         1 1UL       0.061450
     39 H6          -4.5660    -1.2600     0.8390 hc         1 1UL       0.063700
     40 H7          -4.3400    -2.5090    -0.3880 hc         1 1UL       0.063700
     41 H8          -5.0010    -0.9490    -2.1650 h1         1 1UL       0.083700
     42 H9          -5.3380     1.1440     0.0330 hc         1 1UL       0.063700
     43 H10         -5.5300     1.4000    -1.7040 hc         1 1UL       0.063700
     44 H11         -7.3930    -0.2240    -1.7570 h1         1 1UL       0.061450
     45 H12         -7.7200     1.0430    -0.5940 h1         1 1UL       0.061450
     46 H13         -3.1360     1.4380     0.0820 h4         1 1UL       0.174000
     47 H14         -0.4700    -0.8330    -2.4110 h4         1 1UL       0.039100
     48 H15         -1.2620     3.3120    -0.4550 h4         1 1UL       0.018100
     49 H16          2.5440     4.8640     1.2260 hn         1 1UL       0.420800
     50 H17          3.6240     3.5800     1.3750 hn         1 1UL       0.420800
     51 H18          1.2040    -1.3010    -0.5630 ha         1 1UL       0.169000
     52 H19          7.0020    -3.6830     0.8180 ha         1 1UL       0.159000
     53 H20          4.7900    -4.4440    -0.0290 ha         1 1UL       0.145000
     54 H21          2.9610    -2.8610    -0.3330 ha         1 1UL       0.142000
@<TRIPOS>BOND
     1     1     2 2   
     2     2     3 1   
     3     2     4 1   
     4     3    34 1   
     5     3    35 1   
     6     3    36 1   
     7     4     5 1   
     8     4     9 1   
     9     5     6 1   
    10     5    37 1   
    11     5    38 1   
    12     6     7 1   
    13     6    39 1   
    14     6    40 1   
    15     7     8 1   
    16     7    10 1   
    17     7    41 1   
    18     8     9 1   
    19     8    42 1   
    20     8    43 1   
    21     9    44 1   
    22     9    45 1   
    23    10    11 1   
    24    10    14 1   
    25    11    12 2   
    26    11    46 1   
    27    12    13 1   
    28    12    15 1   
    29    13    14 2   
    30    13    47 1   
    31    15    16 ar  
    32    15    21 ar  
    33    16    17 ar  
    34    16    48 1   
    35    17    18 ar  
    36    18    19 1   
    37    18    20 ar  
    38    19    49 1   
    39    19    50 1   
    40    20    21 ar  
    41    20    22 1   
    42    21    24 1   
    43    22    23 1   
    44    23    24 2   
    45    23    25 1   
    46    24    51 1   
    47    25    26 ar  
    48    25    33 ar  
    49    26    27 1   
    50    26    30 ar  
    51    27    28 1   
    52    28    29 2   
    53    29    30 1   
    54    30    31 ar  
    55    31    32 ar  
    56    31    52 1   
    57    32    33 ar  
    58    32    53 1   
    59    33    54 1   
@<TRIPOS>SUBSTRUCTURE
     1 1UL         1 TEMP              0 ****  ****    0 ROOT
