@<TRIPOS>MOLECULE
1UN
   85    88     1     0     0
SMALL
abcg2


@<TRIPOS>ATOM
      1 C1          -2.6460    -1.6370    -4.0590 c6         1 1UN      -0.052700
      2 C2          -1.8730    -1.2860    -5.3320 c6         1 1UN      -0.055700
      3 C3          -2.8060    -1.1630    -6.5360 c6         1 1UN      -0.065400
      4 C4          -3.9700    -0.2090    -6.2850 c6         1 1UN      -0.074400
      5 C5          -4.7330    -0.5930    -5.0200 c6         1 1UN      -0.073400
      6 C6          -3.8040    -0.6690    -3.8120 c6         1 1UN      -0.069400
      7 N7          -0.9370    -0.4920    -2.6670 n3         1 1UN      -0.682600
      8 C8          -0.1640    -0.1510    -3.8530 c6         1 1UN       0.098500
      9 C9          -1.0520    -0.0250    -5.0920 c6         1 1UN      -0.066400
     10 C10         -1.6880    -1.7230    -2.8810 c6         1 1UN       0.158800
     11 C11          0.5410     1.1930    -3.6550 c          1 1UN       0.594100
     12 N12          1.8520     1.1750    -3.9330 ns         1 1UN      -0.513900
     13 C13          2.7840     2.3060    -3.8630 c3         1 1UN       0.139400
     14 C14          4.1370     1.7690    -4.3260 c3         1 1UN      -0.104100
     15 C15          2.3470     3.4330    -4.7980 c3         1 1UN      -0.104100
     16 C16          2.9080     2.8040    -2.4210 c3         1 1UN      -0.104100
     17 O17         -0.0810     2.1860    -3.3080 o          1 1UN      -0.581100
     18 C18         -0.0670    -0.5920    -1.5080 c3         1 1UN       0.130800
     19 C19         -0.7960    -0.7550    -0.1740 c3         1 1UN       0.151300
     20 C20          0.0010    -0.1170     0.9790 c3         1 1UN       0.096700
     21 O21         -1.1270    -2.0900     0.1470 oh         1 1UN      -0.660000
     22 N22         -0.7440    -0.2520     2.2080 ns         1 1UN      -0.498900
     23 C23          1.3910    -0.7390     1.1240 c3         1 1UN       0.010600
     24 C24         -1.0340     0.7640     3.0410 c          1 1UN       0.617700
     25 O25         -0.7940     1.9370     2.7940 o          1 1UN      -0.589100
     26 C29         -1.6490     0.3320     4.3360 ca         1 1UN      -0.104600
     27 C30         -0.9400    -0.5850     5.1070 ca         1 1UN      -0.128000
     28 C31         -1.4200    -0.9560     6.3530 ca         1 1UN      -0.083000
     29 C32         -2.6040    -0.4200     6.8260 ca         1 1UN      -0.130000
     30 C33         -3.3150     0.4900     6.0490 ca         1 1UN       0.134100
     31 C34         -2.8530     0.8830     4.7860 ca         1 1UN      -0.117300
     32 O38         -4.4640     0.9650     6.5720 oh         1 1UN      -0.540100
     33 C39         -3.6810     1.8380     3.9720 c3         1 1UN      -0.056800
     34 S74          2.2590     0.0670     2.4940 ss         1 1UN      -0.135000
     35 C77          3.8090    -0.7690     2.5430 ca         1 1UN      -0.095000
     36 C78          4.6960    -0.3670     3.5450 ca         1 1UN      -0.113000
     37 C79          5.9400    -0.9640     3.6590 ca         1 1UN      -0.096000
     38 C80          6.3220    -1.9720     2.7800 ca         1 1UN      -0.117000
     39 C81          5.4410    -2.3710     1.7860 ca         1 1UN      -0.096000
     40 C82          4.1910    -1.7770     1.6610 ca         1 1UN      -0.113000
     41 H1          -3.0740    -2.6400    -4.1840 hc         1 1UN       0.046700
     42 H2          -1.1670    -2.1030    -5.5280 hc         1 1UN       0.036700
     43 H31A        -3.2080    -2.1560    -6.7660 hc         1 1UN       0.038200
     44 H32A        -2.2400    -0.8490    -7.4180 hc         1 1UN       0.038200
     45 H41         -4.6420    -0.2130    -7.1460 hc         1 1UN       0.040700
     46 H42         -3.6010     0.8180    -6.1930 hc         1 1UN       0.040700
     47 H51         -5.2110    -1.5670    -5.1700 hc         1 1UN       0.037700
     48 H52         -5.5380     0.1220    -4.8320 hc         1 1UN       0.037700
     49 H61         -4.3610    -0.9950    -2.9290 hc         1 1UN       0.051700
     50 H62         -3.4200     0.3280    -3.5780 hc         1 1UN       0.051700
     51 H8           0.5890    -0.9370    -4.0530 h1         1 1UN       0.015700
     52 H91         -0.4110     0.1710    -5.9560 hc         1 1UN       0.060200
     53 H92         -1.6980     0.8460    -4.9710 hc         1 1UN       0.060200
     54 H101        -0.9990    -2.5730    -3.0390 h1         1 1UN       0.038200
     55 H102        -2.2580    -1.9500    -1.9800 h1         1 1UN       0.038200
     56 HNC          2.2480     0.2810    -4.1770 hn         1 1UN       0.305500
     57 H141         4.8880     2.5580    -4.2870 hc         1 1UN       0.044922
     58 H142         4.4810     0.9520    -3.6880 hc         1 1UN       0.044922
     59 H143         4.0880     1.4040    -5.3540 hc         1 1UN       0.044922
     60 H151         2.2330     3.0630    -5.8180 hc         1 1UN       0.044922
     61 H152         1.4050     3.8800    -4.4880 hc         1 1UN       0.044922
     62 H153         3.1030     4.2190    -4.8110 hc         1 1UN       0.044922
     63 H161         3.2570     2.0010    -1.7690 hc         1 1UN       0.044922
     64 H162         3.6320     3.6180    -2.3640 hc         1 1UN       0.044922
     65 H163         1.9590     3.1710    -2.0370 hc         1 1UN       0.044922
     66 H181         0.5160     0.3300    -1.4410 h1         1 1UN       0.037200
     67 H182         0.6730    -1.4060    -1.6290 h1         1 1UN       0.037200
     68 H19         -1.7420    -0.2070    -0.2370 h1         1 1UN       0.107700
     69 H20          0.1010     0.9500     0.7680 h1         1 1UN       0.106700
     70 HOL         -0.4150    -2.6720    -0.1390 ho         1 1UN       0.438000
     71 HNM         -1.0080    -1.1860     2.4810 hn         1 1UN       0.328500
     72 H231         1.3130    -1.8090     1.3290 h1         1 1UN       0.063700
     73 H232         1.9640    -0.6020     0.2060 h1         1 1UN       0.063700
     74 H30         -0.0000    -0.9860     4.7470 ha         1 1UN       0.125000
     75 H31         -0.8680    -1.6600     6.9620 ha         1 1UN       0.118000
     76 H32         -2.9890    -0.7020     7.7980 ha         1 1UN       0.129000
     77 HO          -4.8660     1.6250     5.9990 ho         1 1UN       0.470000
     78 H391        -3.6750     2.8450     4.3970 hc         1 1UN       0.050033
     79 H392        -3.3320     1.9270     2.9480 hc         1 1UN       0.050033
     80 H393        -4.7230     1.5120     3.9150 hc         1 1UN       0.050033
     81 H78          4.4130     0.4140     4.2400 ha         1 1UN       0.116000
     82 H79          6.6140    -0.6380     4.4400 ha         1 1UN       0.112500
     83 H80          7.2940    -2.4370     2.8690 ha         1 1UN       0.115000
     84 H81          5.7220    -3.1540     1.0930 ha         1 1UN       0.112500
     85 H82          3.5320    -2.1180     0.8740 ha         1 1UN       0.116000
@<TRIPOS>BOND
     1     1     2 1   
     2     1     6 1   
     3     1    10 1   
     4     1    41 1   
     5     2     3 1   
     6     2     9 1   
     7     2    42 1   
     8     3     4 1   
     9     3    43 1   
    10     3    44 1   
    11     4     5 1   
    12     4    45 1   
    13     4    46 1   
    14     5     6 1   
    15     5    47 1   
    16     5    48 1   
    17     6    49 1   
    18     6    50 1   
    19     7     8 1   
    20     7    10 1   
    21     7    18 1   
    22     8     9 1   
    23     8    11 1   
    24     8    51 1   
    25     9    52 1   
    26     9    53 1   
    27    10    54 1   
    28    10    55 1   
    29    11    12 1   
    30    11    17 2   
    31    12    13 1   
    32    12    56 1   
    33    13    14 1   
    34    13    15 1   
    35    13    16 1   
    36    14    57 1   
    37    14    58 1   
    38    14    59 1   
    39    15    60 1   
    40    15    61 1   
    41    15    62 1   
    42    16    63 1   
    43    16    64 1   
    44    16    65 1   
    45    18    19 1   
    46    18    66 1   
    47    18    67 1   
    48    19    20 1   
    49    19    21 1   
    50    19    68 1   
    51    20    22 1   
    52    20    23 1   
    53    20    69 1   
    54    21    70 1   
    55    22    24 1   
    56    22    71 1   
    57    23    34 1   
    58    23    72 1   
    59    23    73 1   
    60    24    25 2   
    61    24    26 1   
    62    26    27 ar  
    63    26    31 ar  
    64    27    28 ar  
    65    27    74 1   
    66    28    29 ar  
    67    28    75 1   
    68    29    30 ar  
    69    29    76 1   
    70    30    31 ar  
    71    30    32 1   
    72    31    33 1   
    73    32    77 1   
    74    33    78 1   
    75    33    79 1   
    76    33    80 1   
    77    34    35 1   
    78    35    36 ar  
    79    35    40 ar  
    80    36    37 ar  
    81    36    81 1   
    82    37    38 ar  
    83    37    82 1   
    84    38    39 ar  
    85    38    83 1   
    86    39    40 ar  
    87    39    84 1   
    88    40    85 1   
@<TRIPOS>SUBSTRUCTURE
     1 1UN         1 TEMP              0 ****  ****    0 ROOT
