@<TRIPOS>MOLECULE
1UN
   85    88     1     0     0
SMALL
No Charge or Current Charge


@<TRIPOS>ATOM
      1 C1          -2.3420    -1.7840    -3.8830 c6         1 1UN      -0.052700
      2 C2          -1.5240    -1.5490    -5.1840 c6         1 1UN      -0.055700
      3 C3          -2.4670    -1.2980    -6.3970 c6         1 1UN      -0.065400
      4 C4          -3.4920    -0.1650    -6.1350 c6         1 1UN      -0.074400
      5 C5          -4.3010    -0.4310    -4.8430 c6         1 1UN      -0.073400
      6 C6          -3.3690    -0.6390    -3.6240 c6         1 1UN      -0.069400
      7 N7          -0.4140    -0.8570    -2.5080 n3         1 1UN      -0.682600
      8 C8           0.4370    -0.6860    -3.7560 c6         1 1UN       0.098500
      9 C9          -0.4990    -0.4030    -4.9740 c6         1 1UN      -0.066400
     10 C10         -1.3880    -1.9810    -2.6750 c6         1 1UN       0.158800
     11 C11          1.6240     0.3580    -3.6680 c          1 1UN       0.594100
     12 N12          1.4450     1.5620    -4.3370 ns         1 1UN      -0.513900
     13 C13          2.3730     2.6980    -4.4030 c3         1 1UN       0.139400
     14 C14          1.6900     3.7850    -5.2660 c3         1 1UN      -0.104100
     15 C15          2.6370     3.2690    -2.9870 c3         1 1UN      -0.104100
     16 C16          3.7030     2.2790    -5.0790 c3         1 1UN      -0.104100
     17 O17          2.6460     0.1120    -3.0380 o          1 1UN      -0.581100
     18 C18          0.3860    -0.9300    -1.2470 c3         1 1UN       0.130800
     19 C19         -0.4160    -1.0090     0.0900 c3         1 1UN       0.151300
     20 C20          0.3200    -0.3070     1.2740 c3         1 1UN       0.096700
     21 O21         -0.6870    -2.3860     0.4410 oh         1 1UN      -0.660000
     22 N22         -0.5310    -0.2550     2.4740 ns         1 1UN      -0.498900
     23 C23          1.6920    -0.9420     1.6090 c3         1 1UN       0.010600
     24 C24         -1.5550     0.6450     2.6760 c          1 1UN       0.617700
     25 O25         -1.7940     1.5150     1.8490 o          1 1UN      -0.589100
     26 C29         -2.2880     0.5190     4.0070 ca         1 1UN      -0.104600
     27 C30         -1.5810     0.0120     5.1270 ca         1 1UN      -0.128000
     28 C31         -2.1910    -0.0960     6.3840 ca         1 1UN      -0.083000
     29 C32         -3.5200     0.3080     6.5490 ca         1 1UN      -0.130000
     30 C33         -4.2470     0.8090     5.4620 ca         1 1UN       0.134100
     31 C34         -3.6530     0.9100     4.1760 ca         1 1UN      -0.117300
     32 O38         -5.5370     1.1990     5.6850 oh         1 1UN      -0.540100
     33 C39         -4.4860     1.3990     2.9810 c3         1 1UN      -0.056800
     34 S74          2.5740     0.0270     2.9160 ss         1 1UN      -0.135000
     35 C77          4.1320    -0.8260     3.1900 ca         1 1UN      -0.095000
     36 C78          5.0130    -0.2960     4.1510 ca         1 1UN      -0.113000
     37 C79          6.2470    -0.9190     4.4090 ca         1 1UN      -0.096000
     38 C80          6.6070    -2.0800     3.7040 ca         1 1UN      -0.117000
     39 C81          5.7340    -2.6150     2.7430 ca         1 1UN      -0.096000
     40 C82          4.4990    -1.9920     2.4850 ca         1 1UN      -0.113000
     41 H1          -2.9120    -2.7160    -4.0060 hc         1 1UN       0.046700
     42 H2          -0.9530    -2.4650    -5.3950 hc         1 1UN       0.036700
     43 H31A        -3.0100    -2.2260    -6.6260 hc         1 1UN       0.038200
     44 H32A        -1.8750    -1.0660    -7.2930 hc         1 1UN       0.038200
     45 H41         -4.1770    -0.0830    -6.9900 hc         1 1UN       0.040700
     46 H42         -2.9790     0.8040    -6.0620 hc         1 1UN       0.040700
     47 H51         -4.9330    -1.3190    -4.9800 hc         1 1UN       0.037700
     48 H52         -4.9830     0.4090    -4.6510 hc         1 1UN       0.037700
     49 H61         -3.9750    -0.8790    -2.7400 hc         1 1UN       0.051700
     50 H62         -2.8510     0.3000    -3.3910 hc         1 1UN       0.051700
     51 H8           0.9430    -1.6420    -3.9580 h1         1 1UN       0.015700
     52 H91          0.1070    -0.2990    -5.8850 hc         1 1UN       0.060200
     53 H92         -1.0160     0.5540    -4.8290 hc         1 1UN       0.060200
     54 H101        -0.8440    -2.9280    -2.8040 h1         1 1UN       0.038200
     55 H102        -2.0180    -2.0900    -1.7820 h1         1 1UN       0.038200
     56 HNC          0.5570     1.6700    -4.8080 hn         1 1UN       0.305500
     57 H141         2.3300     4.6710    -5.3600 hc         1 1UN       0.044922
     58 H142         1.4820     3.4110    -6.2760 hc         1 1UN       0.044922
     59 H143         0.7400     4.1020    -4.8180 hc         1 1UN       0.044922
     60 H151         1.6930     3.5200    -2.4870 hc         1 1UN       0.044922
     61 H152         3.1760     2.5550    -2.3550 hc         1 1UN       0.044922
     62 H153         3.2430     4.1820    -3.0440 hc         1 1UN       0.044922
     63 H161         3.5150     1.8290    -6.0620 hc         1 1UN       0.044922
     64 H162         4.3540     3.1490    -5.2240 hc         1 1UN       0.044922
     65 H163         4.2550     1.5530    -4.4730 hc         1 1UN       0.044922
     66 H181         0.9910    -0.0190    -1.1750 h1         1 1UN       0.037200
     67 H182         1.0900    -1.7730    -1.2940 h1         1 1UN       0.037200
     68 H19         -1.3570    -0.4620    -0.0680 h1         1 1UN       0.107700
     69 H20          0.5140     0.7290     0.9630 h1         1 1UN       0.106700
     70 HOL         -1.0200    -2.8280    -0.3680 ho         1 1UN       0.438000
     71 HNM         -0.4130    -0.9700     3.1790 hn         1 1UN       0.328500
     72 H231         1.5500    -1.9710     1.9600 h1         1 1UN       0.063700
     73 H232         2.3230    -0.9600     0.7110 h1         1 1UN       0.063700
     74 H30         -0.5350    -0.2760     5.0440 ha         1 1UN       0.125000
     75 H31         -1.6290    -0.4790     7.2330 ha         1 1UN       0.118000
     76 H32         -3.9890     0.2340     7.5270 ha         1 1UN       0.129000
     77 HO          -5.8870     1.5950     4.8610 ho         1 1UN       0.470000
     78 H391        -4.2650     2.4490     2.7510 hc         1 1UN       0.050033
     79 H392        -4.2810     0.8060     2.0830 hc         1 1UN       0.050033
     80 H393        -5.5660     1.3160     3.1430 hc         1 1UN       0.050033
     81 H78          4.7410     0.6020     4.7010 ha         1 1UN       0.116000
     82 H79          6.9210    -0.5030     5.1540 ha         1 1UN       0.112500
     83 H80          7.5620    -2.5630     3.9030 ha         1 1UN       0.115000
     84 H81          6.0130    -3.5130     2.1970 ha         1 1UN       0.112500
     85 H82          3.8460    -2.4300     1.7360 ha         1 1UN       0.116000
@<TRIPOS>BOND
     1     1     2 1   
     2     1     6 1   
     3     1    10 1   
     4     1    41 1   
     5     2     3 1   
     6     2     9 1   
     7     2    42 1   
     8     3     4 1   
     9     3    43 1   
    10     3    44 1   
    11     4     5 1   
    12     4    45 1   
    13     4    46 1   
    14     5     6 1   
    15     5    47 1   
    16     5    48 1   
    17     6    49 1   
    18     6    50 1   
    19     7     8 1   
    20     7    10 1   
    21     7    18 1   
    22     8     9 1   
    23     8    11 1   
    24     8    51 1   
    25     9    52 1   
    26     9    53 1   
    27    10    54 1   
    28    10    55 1   
    29    11    12 1   
    30    11    17 2   
    31    12    13 1   
    32    12    56 1   
    33    13    14 1   
    34    13    15 1   
    35    13    16 1   
    36    14    57 1   
    37    14    58 1   
    38    14    59 1   
    39    15    60 1   
    40    15    61 1   
    41    15    62 1   
    42    16    63 1   
    43    16    64 1   
    44    16    65 1   
    45    18    19 1   
    46    18    66 1   
    47    18    67 1   
    48    19    20 1   
    49    19    21 1   
    50    19    68 1   
    51    20    22 1   
    52    20    23 1   
    53    20    69 1   
    54    21    70 1   
    55    22    24 1   
    56    22    71 1   
    57    23    34 1   
    58    23    72 1   
    59    23    73 1   
    60    24    25 2   
    61    24    26 1   
    62    26    27 ar  
    63    26    31 ar  
    64    27    28 ar  
    65    27    74 1   
    66    28    29 ar  
    67    28    75 1   
    68    29    30 ar  
    69    29    76 1   
    70    30    31 ar  
    71    30    32 1   
    72    31    33 1   
    73    32    77 1   
    74    33    78 1   
    75    33    79 1   
    76    33    80 1   
    77    34    35 1   
    78    35    36 ar  
    79    35    40 ar  
    80    36    37 ar  
    81    36    81 1   
    82    37    38 ar  
    83    37    82 1   
    84    38    39 ar  
    85    38    83 1   
    86    39    40 ar  
    87    39    84 1   
    88    40    85 1   
@<TRIPOS>SUBSTRUCTURE
     1 1UN         1 TEMP              0 ****  ****    0 ROOT
