@<TRIPOS>MOLECULE
1UO
   51    56     1     0     0
SMALL
abcg2


@<TRIPOS>ATOM
      1 O1           8.7890    -1.4950    -1.7520 oh         1 1UO      -0.655000
      2 C2           7.5020    -1.0000    -1.4470 c6         1 1UO       0.168300
      3 C4           6.6910    -2.1340    -0.8390 c6         1 1UO      -0.092900
      4 C5           5.2850    -1.6680    -0.4750 c6         1 1UO      -0.088400
      5 C6           5.3350    -0.4680     0.4700 c6         1 1UO       0.091300
      6 C8           6.1510     0.6690    -0.1360 c6         1 1UO      -0.088400
      7 C9           7.5540     0.1840    -0.4870 c6         1 1UO      -0.092900
      8 N10          3.9960    -0.0270     0.8290 na         1 1UO       0.133800
      9 C11          3.1420     0.6940     0.0830 cc         1 1UO      -0.159000
     10 C12          1.9620     0.7920     0.7930 cd         1 1UO      -0.153000
     11 C13          2.2260     0.0730     1.9760 cd         1 1UO       0.263900
     12 N14          3.4500    -0.4170     1.9790 nc         1 1UO      -0.525800
     13 C15          0.7750     1.5540     0.4090 ca         1 1UO      -0.037000
     14 C16          0.8880     2.8660    -0.0190 ca         1 1UO       0.368900
     15 N17         -0.1150     3.6670    -0.3940 nb         1 1UO      -0.737000
     16 C18         -1.3630     3.2310    -0.3590 ca         1 1UO       0.626900
     17 N19         -2.3790     4.0710    -0.6820 nv         1 1UO      -1.046900
     18 C20         -1.5750     1.9130     0.0620 ca         1 1UO      -0.050900
     19 O21         -2.7700     1.2860     0.1270 os         1 1UO      -0.161200
     20 C22         -2.5420     0.0120     0.5230 cc         1 1UO       0.099900
     21 C23         -3.7210    -0.8270     0.6060 ca         1 1UO      -0.001800
     22 C24         -3.7530    -2.0200     1.3160 ca         1 1UO      -0.049000
     23 C25         -4.8990    -2.8220     1.3700 ca         1 1UO      -0.121000
     24 C26         -6.0540    -2.4580     0.7180 ca         1 1UO      -0.019000
     25 C27         -6.0480    -1.2560     0.0080 ca         1 1UO       0.012400
     26 N28         -7.1140    -0.7520    -0.6950 nc         1 1UO      -0.151400
     27 N29         -6.8860     0.3420    -1.2600 nd         1 1UO      -0.115500
     28 S30         -5.3070     0.9170    -0.9990 ss         1 1UO       0.268500
     29 C31         -4.9080    -0.4460    -0.0450 ca         1 1UO      -0.180000
     30 C32         -1.2050    -0.1770     0.7140 cd         1 1UO       0.051800
     31 CL3         -0.4410    -1.6440     1.1200 cl         1 1UO      -0.124000
     32 C34         -0.5470     1.0650     0.4300 ca         1 1UO      -0.024800
     33 H1           9.2990    -0.7800    -2.1440 ho         1 1UO       0.443000
     34 H2           6.9900    -0.6710    -2.3660 h1         1 1UO       0.028700
     35 H3           6.6310    -2.9720    -1.5360 hc         1 1UO       0.056200
     36 H4           7.2040    -2.4980     0.0590 hc         1 1UO       0.056200
     37 H5           4.7420    -1.3830    -1.3820 hc         1 1UO       0.054450
     38 H6           4.7260    -2.4820    -0.0100 hc         1 1UO       0.054450
     39 H7           5.7980    -0.7710     1.4120 h1         1 1UO       0.089700
     40 H8           5.6610     1.0360    -1.0440 hc         1 1UO       0.054450
     41 H9           6.2010     1.5080     0.5610 hc         1 1UO       0.054450
     42 H10          8.0830    -0.1170     0.4230 hc         1 1UO       0.056200
     43 H11          8.1230     1.0050    -0.9320 hc         1 1UO       0.056200
     44 H12          3.4040     1.0820    -0.8880 h4         1 1UO       0.154000
     45 H13          1.5720    -0.0830     2.8200 h4         1 1UO       0.042100
     46 H14          1.8750     3.3150    -0.0600 h4         1 1UO       0.022100
     47 H15         -2.1220     4.8990    -1.1940 hn         1 1UO       0.481000
     48 H16         -3.2660     3.6790    -0.9520 hn         1 1UO       0.481000
     49 H17         -2.8800    -2.3450     1.8620 ha         1 1UO       0.134000
     50 H18         -4.8660    -3.7400     1.9400 ha         1 1UO       0.128000
     51 H19         -6.9450    -3.0700     0.7490 ha         1 1UO       0.141000
@<TRIPOS>BOND
     1     1     2 1   
     2     1    33 1   
     3     2     3 1   
     4     2     7 1   
     5     2    34 1   
     6     3     4 1   
     7     3    35 1   
     8     3    36 1   
     9     4     5 1   
    10     4    37 1   
    11     4    38 1   
    12     5     6 1   
    13     5     8 1   
    14     5    39 1   
    15     6     7 1   
    16     6    40 1   
    17     6    41 1   
    18     7    42 1   
    19     7    43 1   
    20     8     9 1   
    21     8    12 1   
    22     9    10 2   
    23     9    44 1   
    24    10    11 1   
    25    10    13 1   
    26    11    12 2   
    27    11    45 1   
    28    13    14 ar  
    29    13    32 ar  
    30    14    15 ar  
    31    14    46 1   
    32    15    16 ar  
    33    16    17 1   
    34    16    18 ar  
    35    17    47 1   
    36    17    48 1   
    37    18    19 1   
    38    18    32 ar  
    39    19    20 1   
    40    20    21 1   
    41    20    30 2   
    42    21    22 ar  
    43    21    29 ar  
    44    22    23 ar  
    45    22    49 1   
    46    23    24 ar  
    47    23    50 1   
    48    24    25 ar  
    49    24    51 1   
    50    25    26 1   
    51    25    29 ar  
    52    26    27 2   
    53    27    28 1   
    54    28    29 1   
    55    30    31 1   
    56    30    32 1   
@<TRIPOS>SUBSTRUCTURE
     1 1UO         1 TEMP              0 ****  ****    0 ROOT
