@<TRIPOS>MOLECULE
1UO
   51    56     1     0     0
SMALL
No Charge or Current Charge


@<TRIPOS>ATOM
      1 O1           9.1680    -0.9530    -1.4090 oh         1 1UO      -0.655000
      2 C2           7.8060    -0.5650    -1.2190 c6         1 1UO       0.168300
      3 C4           6.8800    -1.7910    -1.4190 c6         1 1UO      -0.092900
      4 C5           5.3950    -1.4270    -1.1570 c6         1 1UO      -0.088400
      5 C6           5.2080    -0.8210     0.2610 c6         1 1UO       0.091300
      6 C8           6.1380     0.4080     0.4630 c6         1 1UO      -0.088400
      7 C9           7.6200     0.0390     0.1970 c6         1 1UO      -0.092900
      8 N10          3.7890    -0.4720     0.5160 na         1 1UO       0.133800
      9 C11          3.0550     0.4600    -0.2160 cc         1 1UO      -0.159000
     10 C12          1.8010     0.4220     0.3300 cd         1 1UO      -0.153000
     11 C13          1.8870    -0.4630     1.4300 cd         1 1UO       0.263900
     12 N14          3.0700    -1.0350     1.5480 nc         1 1UO      -0.525800
     13 C15          0.6830     1.3230    -0.0150 ca         1 1UO      -0.037000
     14 C16          0.9530     2.5790    -0.6280 ca         1 1UO       0.368900
     15 N17          0.0100     3.5270    -0.8990 nb         1 1UO      -0.737000
     16 C18         -1.2460     3.2420    -0.5650 ca         1 1UO       0.626900
     17 N19         -2.0790     4.2440    -0.8790 nv         1 1UO      -1.046900
     18 C20         -1.6320     2.0200     0.0080 ca         1 1UO      -0.050900
     19 O21         -2.9200     1.6340     0.3390 os         1 1UO      -0.161200
     20 C22         -2.7620     0.3240     0.7770 cc         1 1UO       0.099900
     21 C23         -3.8950    -0.5840     0.9620 ca         1 1UO      -0.001800
     22 C24         -3.9310    -1.4730     2.0580 ca         1 1UO      -0.049000
     23 C25         -5.0280    -2.3430     2.2390 ca         1 1UO      -0.121000
     24 C26         -6.1010    -2.3340     1.3250 ca         1 1UO      -0.019000
     25 C27         -6.0630    -1.4480     0.2360 ca         1 1UO       0.012400
     26 N28         -7.0470    -1.3430    -0.7400 nc         1 1UO      -0.151400
     27 N29         -6.7100    -0.4240    -1.6350 nd         1 1UO      -0.115500
     28 S30         -5.2320     0.3490    -1.3740 ss         1 1UO       0.268500
     29 C31         -4.9900    -0.6040     0.0750 ca         1 1UO      -0.180000
     30 C32         -1.4400    -0.0750     0.7210 cd         1 1UO       0.051800
     31 Cl3         -0.8830    -1.7240     0.7290 cl         1 1UO      -0.124000
     32 C34         -0.6790     1.0590     0.2600 ca         1 1UO      -0.024800
     33 H1           9.7050    -0.1320    -1.3610 ho         1 1UO       0.443000
     34 H2           7.5330     0.1990    -1.9620 h1         1 1UO       0.028700
     35 H3           6.9910    -2.1790    -2.4410 hc         1 1UO       0.056200
     36 H4           7.1840    -2.6030    -0.7430 hc         1 1UO       0.056200
     37 H5           5.0550    -0.7150    -1.9220 hc         1 1UO       0.054450
     38 H6           4.7700    -2.3240    -1.2650 hc         1 1UO       0.054450
     39 H7           5.4950    -1.5870     0.9960 h1         1 1UO       0.089700
     40 H8           5.8380     1.2240    -0.2100 hc         1 1UO       0.054450
     41 H9           6.0300     0.7920     1.4870 hc         1 1UO       0.054450
     42 H10          7.9620    -0.6780     0.9570 hc         1 1UO       0.056200
     43 H11          8.2470     0.9350     0.3090 hc         1 1UO       0.056200
     44 H12          3.4740     1.0360    -1.0310 h4         1 1UO       0.154000
     45 H13          1.1330    -0.6780     2.1750 h4         1 1UO       0.042100
     46 H14          1.9750     2.8610    -0.8780 h4         1 1UO       0.022100
     47 H15         -1.7010     4.9300    -1.5220 hn         1 1UO       0.481000
     48 H16         -3.0630     4.0220    -0.9720 hn         1 1UO       0.481000
     49 H17         -3.1130    -1.4860     2.7750 ha         1 1UO       0.134000
     50 H18         -5.0460    -3.0240     3.0870 ha         1 1UO       0.128000
     51 H19         -6.9460    -3.0050     1.4590 ha         1 1UO       0.141000
@<TRIPOS>BOND
     1     1     2 1   
     2     1    33 1   
     3     2     3 1   
     4     2     7 1   
     5     2    34 1   
     6     3     4 1   
     7     3    35 1   
     8     3    36 1   
     9     4     5 1   
    10     4    37 1   
    11     4    38 1   
    12     5     6 1   
    13     5     8 1   
    14     5    39 1   
    15     6     7 1   
    16     6    40 1   
    17     6    41 1   
    18     7    42 1   
    19     7    43 1   
    20     8     9 1   
    21     8    12 1   
    22     9    10 2   
    23     9    44 1   
    24    10    11 1   
    25    10    13 1   
    26    11    12 2   
    27    11    45 1   
    28    13    14 ar  
    29    13    32 ar  
    30    14    15 ar  
    31    14    46 1   
    32    15    16 ar  
    33    16    17 1   
    34    16    18 ar  
    35    17    47 1   
    36    17    48 1   
    37    18    19 1   
    38    18    32 ar  
    39    19    20 1   
    40    20    21 1   
    41    20    30 2   
    42    21    22 ar  
    43    21    29 ar  
    44    22    23 ar  
    45    22    49 1   
    46    23    24 ar  
    47    23    50 1   
    48    24    25 ar  
    49    24    51 1   
    50    25    26 1   
    51    25    29 ar  
    52    26    27 2   
    53    27    28 1   
    54    28    29 1   
    55    30    31 1   
    56    30    32 1   
@<TRIPOS>SUBSTRUCTURE
     1 1UO         1 TEMP              0 ****  ****    0 ROOT
