@<TRIPOS>MOLECULE
1UP
   35    36     1     0     0
SMALL
No Charge or Current Charge


@<TRIPOS>ATOM
      1 O3           1.2390    -3.7640     0.3720 o          1 1UP      -0.585100
      2 C13          2.2520    -3.0880     0.4790 c          1 1UP       0.594100
      3 N1           3.4500    -3.7000     0.6400 nt         1 1UP      -0.615000
      4 C12          2.2820    -1.5410     0.4450 c3         1 1UP       0.078600
      5 O2           0.9620    -0.9720     0.2730 os         1 1UP      -0.319100
      6 C11          0.6730     0.3910     0.2040 ca         1 1UP       0.066100
      7 C2           1.6560     1.4280     0.2950 ca         1 1UP       0.113100
      8 O1           2.9980     1.1230     0.4650 os         1 1UP      -0.336100
      9 C1           4.0290     2.1230     0.5620 c3         1 1UP       0.147900
     10 C10         -0.6940     0.7420     0.0310 ca         1 1UP      -0.015000
     11 C5          -1.0730     2.0990    -0.0510 ca         1 1UP      -0.054000
     12 C4          -0.1050     3.1090     0.0380 ca         1 1UP      -0.065000
     13 C3           1.2450     2.7790     0.2100 ca         1 1UP      -0.168000
     14 C9          -1.6970    -0.2540    -0.0620 ca         1 1UP      -0.074000
     15 C8          -3.0610     0.0870    -0.2210 ca         1 1UP      -0.170900
     16 C14         -4.1060    -0.9760    -0.3600 ce         1 1UP       0.656800
     17 N3          -5.3400    -0.7130     0.1080 nv         1 1UP      -1.032200
     18 N2          -3.8610    -2.1540    -0.7630 n2         1 1UP      -0.843100
     19 C7          -3.4080     1.4530    -0.3170 ca         1 1UP      -0.094000
     20 C6          -2.4230     2.4480    -0.2270 ca         1 1UP      -0.097000
     21 H1           3.4880    -4.7080     0.6690 hn         1 1UP       0.315000
     22 H2           4.2940    -3.1520     0.7290 hn         1 1UP       0.315000
     23 H3           2.7300    -1.2050     1.3890 h1         1 1UP       0.054200
     24 H4           2.9420    -1.2490    -0.3810 h1         1 1UP       0.054200
     25 H5           5.0080     1.6460     0.6920 h1         1 1UP       0.042367
     26 H6           4.0690     2.7340    -0.3490 h1         1 1UP       0.042367
     27 H7           3.8550     2.7810     1.4230 h1         1 1UP       0.042367
     28 H8          -0.3970     4.1550    -0.0260 ha         1 1UP       0.118000
     29 H9           1.9590     3.5950     0.2740 ha         1 1UP       0.119000
     30 H10         -1.4190    -1.3030     0.0090 ha         1 1UP       0.153000
     31 H11         -5.3920     0.0310     0.7930 hn         1 1UP       0.462500
     32 H12         -5.8990    -1.5350     0.2970 hn         1 1UP       0.462500
     33 H13         -2.9160    -2.1570    -1.1690 hn         1 1UP       0.407400
     34 H14         -4.4430     1.7510    -0.4740 ha         1 1UP       0.111000
     35 H15         -2.7140     3.4930    -0.3000 ha         1 1UP       0.114000
@<TRIPOS>BOND
     1     1     2 2   
     2     2     3 1   
     3     2     4 1   
     4     3    21 1   
     5     3    22 1   
     6     4     5 1   
     7     4    23 1   
     8     4    24 1   
     9     5     6 1   
    10     6     7 ar  
    11     6    10 ar  
    12     7     8 1   
    13     7    13 ar  
    14     8     9 1   
    15     9    25 1   
    16     9    26 1   
    17     9    27 1   
    18    10    11 ar  
    19    10    14 ar  
    20    11    12 ar  
    21    11    20 ar  
    22    12    13 ar  
    23    12    28 1   
    24    13    29 1   
    25    14    15 ar  
    26    14    30 1   
    27    15    16 1   
    28    15    19 ar  
    29    16    17 1   
    30    16    18 2   
    31    17    31 1   
    32    17    32 1   
    33    18    33 1   
    34    19    20 ar  
    35    19    34 1   
    36    20    35 1   
@<TRIPOS>SUBSTRUCTURE
     1 1UP         1 TEMP              0 ****  ****    0 ROOT
