@<TRIPOS>MOLECULE
1UP
   35    36     1     0     0
SMALL
bcc


@<TRIPOS>ATOM
      1 O3           0.6330    -3.1940    -0.3650 o          1 1UP      -0.585100
      2 C13          1.5680    -2.8490     0.3380 c          1 1UP       0.661100
      3 N1           2.2620    -3.6860     1.1180 nt         1 1UP      -0.682000
      4 C12          2.0400    -1.4030     0.4300 c3         1 1UP       0.055400
      5 O2           1.4230    -0.6440    -0.5840 os         1 1UP      -0.295900
      6 C11          0.9610     0.5860    -0.2340 ca         1 1UP       0.066100
      7 C2           1.8370     1.6390    -0.0500 ca         1 1UP       0.113100
      8 O1           3.1440     1.3630    -0.1920 os         1 1UP      -0.312900
      9 C1           4.0830     2.4150    -0.0660 c3         1 1UP       0.124700
     10 C10         -0.4320     0.7740    -0.0910 ca         1 1UP      -0.015000
     11 C5          -0.9300     2.0630     0.2240 ca         1 1UP      -0.054000
     12 C4          -0.0180     3.1210     0.4010 ca         1 1UP      -0.083000
     13 C3           1.3300     2.9180     0.2700 ca         1 1UP      -0.186000
     14 C9          -1.3430    -0.2920    -0.2600 ca         1 1UP      -0.092000
     15 C8          -2.6960    -0.1160    -0.1180 ca         1 1UP      -0.170900
     16 C14         -3.6160    -1.2890    -0.2870 ce         1 1UP       0.656800
     17 N3          -4.9520    -1.0040    -0.2960 nv         1 1UP      -0.921800
     18 N2          -3.2460    -2.4990    -0.4680 n2         1 1UP      -0.843100
     19 C7          -3.1840     1.1830     0.1830 ca         1 1UP      -0.112000
     20 C6          -2.3270     2.2320     0.3520 ca         1 1UP      -0.115000
     21 H1           2.0120    -4.6600     1.1730 hn         1 1UP       0.315000
     22 H2           3.0450    -3.3780     1.6710 hn         1 1UP       0.315000
     23 H3           1.7900    -1.0270     1.4290 h1         1 1UP       0.054200
     24 H4           3.1290    -1.3620     0.3330 h1         1 1UP       0.054200
     25 H5           5.0600     1.9750    -0.2460 h1         1 1UP       0.042367
     26 H6           3.9100     3.2050    -0.8000 h1         1 1UP       0.042367
     27 H7           4.0750     2.8530     0.9360 h1         1 1UP       0.042367
     28 H8          -0.3880     4.1090     0.6440 ha         1 1UP       0.136000
     29 H9           2.0030     3.7520     0.4100 ha         1 1UP       0.137000
     30 H10         -0.9340    -1.2590    -0.5170 ha         1 1UP       0.171000
     31 H11         -5.2960    -0.2200     0.2290 hn         1 1UP       0.407300
     32 H12         -5.5580    -1.8080    -0.2450 hn         1 1UP       0.407300
     33 H13         -2.2390    -2.5930    -0.4980 hn         1 1UP       0.407400
     34 H14         -4.2420     1.3790     0.2880 ha         1 1UP       0.129000
     35 H15         -2.7170     3.2140     0.5880 ha         1 1UP       0.132000
@<TRIPOS>BOND
     1     1     2 2   
     2     2     3 1   
     3     2     4 1   
     4     3    21 1   
     5     3    22 1   
     6     4     5 1   
     7     4    23 1   
     8     4    24 1   
     9     5     6 1   
    10     6     7 ar  
    11     6    10 ar  
    12     7     8 1   
    13     7    13 ar  
    14     8     9 1   
    15     9    25 1   
    16     9    26 1   
    17     9    27 1   
    18    10    11 ar  
    19    10    14 ar  
    20    11    12 ar  
    21    11    20 ar  
    22    12    13 ar  
    23    12    28 1   
    24    13    29 1   
    25    14    15 ar  
    26    14    30 1   
    27    15    16 1   
    28    15    19 ar  
    29    16    17 1   
    30    16    18 2   
    31    17    31 1   
    32    17    32 1   
    33    18    33 1   
    34    19    20 ar  
    35    19    34 1   
    36    20    35 1   
@<TRIPOS>SUBSTRUCTURE
     1 1UP         1 TEMP              0 ****  ****    0 ROOT
