@<TRIPOS>MOLECULE
1UQ
   30    30     1     0     0
SMALL
bcc


@<TRIPOS>ATOM
      1 C2           3.3250     0.7160    -0.3720 c          1 1UQ       0.706100
      2 O4           4.4850    -0.3690     1.3390 oh         1 1UQ      -0.406100
      3 C5           5.7920     0.5040    -0.4310 c3         1 1UQ       0.095300
      4 C6           2.0950     0.4010     0.4410 c3         1 1UQ      -0.095300
      5 C19         -4.4330     2.1970    -0.0960 ca         1 1UQ      -0.192000
      6 C15         -3.9810     1.9730     1.1980 ca         1 1UQ      -0.152000
      7 C14         -2.7580     1.3500     1.4110 ca         1 1UQ      -0.114000
      8 C17         -3.6510     1.7850    -1.1680 ca         1 1UQ      -0.152000
      9 C16         -2.4340     1.1530    -0.9510 ca         1 1UQ      -0.114000
     10 C13         -1.9600     0.9370     0.3450 ca         1 1UQ       0.052700
     11 C8          -0.6640     0.2370     0.5980 c3         1 1UQ      -0.031500
     12 P9          -0.8310    -1.6200     0.2910 p5         1 1UQ       1.128700
     13 O12         -1.9210    -2.0260     1.2830 o          1 1UQ      -0.909833
     14 O11         -1.2200    -1.7600    -1.1800 o          1 1UQ      -0.909833
     15 O10          0.5510    -2.2030     0.6300 o          1 1UQ      -0.909833
     16 S7           0.6350     1.0480    -0.4090 ss         1 1UQ      -0.354200
     17 O1           3.2870     1.3800    -1.3970 o          1 1UQ      -0.606100
     18 N3           4.4840     0.1940     0.0890 n          1 1UQ      -0.366300
     19 H1           4.4780    -1.3270     1.2040 ho         1 1UQ       0.414000
     20 H2           5.6950     0.8990    -1.4370 h1         1 1UQ       0.028367
     21 H3           6.3030     1.2420     0.1910 h1         1 1UQ       0.028367
     22 H4           6.3960    -0.4020    -0.4740 h1         1 1UQ       0.028367
     23 H5           1.9430    -0.6760     0.5720 h1         1 1UQ       0.121700
     24 H6           2.1850     0.8450     1.4360 h1         1 1UQ       0.121700
     25 H9          -2.4110     1.1880     2.4250 ha         1 1UQ       0.143000
     26 H10         -3.9950     1.9490    -2.1820 ha         1 1UQ       0.088500
     27 H11         -1.8460     0.8170    -1.7950 ha         1 1UQ       0.143000
     28 H12         -0.3910     0.3890     1.6470 h1         1 1UQ       0.046700
     29 H7          -5.3820     2.6890    -0.2690 ha         1 1UQ       0.081000
     30 H8          -4.5800     2.2850     2.0440 ha         1 1UQ       0.088500
@<TRIPOS>BOND
     1     1     4 1   
     2     1    17 2   
     3     1    18 1   
     4     2    18 1   
     5     2    19 1   
     6     3    18 1   
     7     3    20 1   
     8     3    21 1   
     9     3    22 1   
    10     4    16 1   
    11     4    23 1   
    12     4    24 1   
    13     5     6 ar  
    14     5     8 ar  
    15     5    29 1   
    16     6     7 ar  
    17     6    30 1   
    18     7    10 ar  
    19     7    25 1   
    20     8     9 ar  
    21     8    26 1   
    22     9    10 ar  
    23     9    27 1   
    24    10    11 1   
    25    11    12 1   
    26    11    16 1   
    27    11    28 1   
    28    12    13 1   
    29    12    14 1   
    30    12    15 1   
@<TRIPOS>SUBSTRUCTURE
     1 1UQ         1 TEMP              0 ****  ****    0 ROOT
