@<TRIPOS>MOLECULE
1UQ
   30    30     1     0     0
SMALL
No Charge or Current Charge


@<TRIPOS>ATOM
      1 C2           3.4600     0.7620    -0.4080 c          1 1UQ       0.639100
      2 O4           4.6100    -0.6430     1.3100 oh         1 1UQ      -0.445100
      3 C5           5.9980     0.7440    -0.2030 c3         1 1UQ       0.095300
      4 C6           2.1210     0.2250     0.1520 c3         1 1UQ      -0.047400
      5 C19         -4.4880     2.3480     0.0390 ca         1 1UQ      -0.174000
      6 C15         -3.8740     2.2360     1.2960 ca         1 1UQ      -0.134000
      7 C14         -2.6700     1.5210     1.4300 ca         1 1UQ      -0.096000
      8 C17         -3.9000     1.7470    -1.0850 ca         1 1UQ      -0.134000
      9 C16         -2.6960     1.0320    -0.9510 ca         1 1UQ      -0.096000
     10 C13         -2.0730     0.9100     0.3080 ca         1 1UQ       0.052700
     11 C8          -0.7600     0.1460     0.4560 c3         1 1UQ      -0.141400
     12 P9          -1.0090    -1.7140     0.2850 p5         1 1UQ       1.286500
     13 O12         -2.2200    -2.1220     1.0580 o          1 1UQ      -0.909833
     14 O11         -1.1870    -2.0770    -1.1540 o          1 1UQ      -0.909833
     15 O10          0.1840    -2.4220     0.8370 o          1 1UQ      -0.909833
     16 S7           0.5690     0.9840    -0.5790 ss         1 1UQ      -0.450000
     17 O1           3.5120     1.5610    -1.3400 o          1 1UQ      -0.606100
     18 N3           4.6530     0.2870     0.2050 n          1 1UQ      -0.299300
     19 H1           4.7010    -1.5390     0.9080 ho         1 1UQ       0.453000
     20 H2           6.1740     0.4790    -1.2540 h1         1 1UQ       0.028367
     21 H3           6.0680     1.8330    -0.0880 h1         1 1UQ       0.028367
     22 H4           6.7660     0.2690     0.4200 h1         1 1UQ       0.028367
     23 H5           2.1200    -0.8570    -0.0170 h1         1 1UQ       0.121700
     24 H6           2.1360     0.3960     1.2350 h1         1 1UQ       0.121700
     25 H9          -2.2000     1.4410     2.4080 ha         1 1UQ       0.125000
     26 H10         -4.3730     1.8350    -2.0600 ha         1 1UQ       0.070500
     27 H11         -2.2430     0.5720    -1.8260 ha         1 1UQ       0.125000
     28 H12         -0.4380     0.2400     1.5000 h1         1 1UQ       0.046700
     29 H7          -5.4190     2.9010    -0.0640 ha         1 1UQ       0.063000
     30 H8          -4.3270     2.7020     2.1670 ha         1 1UQ       0.070500
@<TRIPOS>BOND
     1     1     4 1   
     2     1    17 2   
     3     1    18 1   
     4     2    18 1   
     5     2    19 1   
     6     3    18 1   
     7     3    20 1   
     8     3    21 1   
     9     3    22 1   
    10     4    16 1   
    11     4    23 1   
    12     4    24 1   
    13     5     6 ar  
    14     5     8 ar  
    15     5    29 1   
    16     6     7 ar  
    17     6    30 1   
    18     7    10 ar  
    19     7    25 1   
    20     8     9 ar  
    21     8    26 1   
    22     9    10 ar  
    23     9    27 1   
    24    10    11 1   
    25    11    12 1   
    26    11    16 1   
    27    11    28 1   
    28    12    13 1   
    29    12    14 1   
    30    12    15 1   
@<TRIPOS>SUBSTRUCTURE
     1 1UQ         1 TEMP              0 ****  ****    0 ROOT
