@<TRIPOS>MOLECULE
1UR
   29    31     1     0     0
SMALL
No Charge or Current Charge


@<TRIPOS>ATOM
      1 CAK         -1.2010     1.6410     0.0110 cc         1 1UR      -0.432200
      2 CAL         -2.6550     1.7400     0.0060 c          1 1UR       0.600900
      3 OAM         -3.2320     2.8190     0.0060 o          1 1UR      -0.574100
      4 CAN         -3.3840     0.4390     0.0010 ca         1 1UR      -0.227600
      5 CAO         -4.7940     0.3820    -0.0040 ca         1 1UR      -0.030000
      6 CAP         -5.4470    -0.8640    -0.0090 ca         1 1UR      -0.161000
      7 CAQ         -4.6990    -2.0530    -0.0090 ca         1 1UR      -0.068000
      8 CAR         -3.2950    -1.9940    -0.0040 ca         1 1UR      -0.143000
      9 CAS         -2.6420    -0.7510     0.0000 ca         1 1UR       0.160100
     10 OAT         -1.2690    -0.7210     0.0050 os         1 1UR      -0.210200
     11 CAJ         -0.5330     0.4360     0.0100 cd         1 1UR       0.248900
     12 CAG          0.9390     0.2360     0.0150 ca         1 1UR      -0.129800
     13 CAF          1.4940    -1.0650     0.0130 ca         1 1UR      -0.095500
     14 CAE          2.8860    -1.2600     0.0180 ca         1 1UR      -0.101000
     15 CAD          3.7730    -0.1610     0.0230 ca         1 1UR      -0.097600
     16 CAB          5.2810    -0.3710     0.0280 c          1 1UR       0.710600
     17 OAC          6.0100     0.6110     0.0320 o          1 1UR      -0.711000
     18 OAA          5.7130    -1.5160     0.0270 o          1 1UR      -0.711000
     19 CAI          3.2210     1.1390     0.0240 ca         1 1UR      -0.101000
     20 CAH          1.8280     1.3340     0.0200 ca         1 1UR      -0.095500
     21 H1          -0.6900     2.5930     0.0140 ha         1 1UR       0.217000
     22 H2          -5.3850     1.2970    -0.0040 ha         1 1UR       0.131000
     23 H3          -6.5330    -0.9060    -0.0130 ha         1 1UR       0.111000
     24 H4          -5.2050    -3.0160    -0.0130 ha         1 1UR       0.110000
     25 H5          -2.7110    -2.9110    -0.0040 ha         1 1UR       0.133000
     26 H6           0.8530    -1.9430     0.0090 ha         1 1UR       0.099500
     27 H7           3.2740    -2.2760     0.0170 ha         1 1UR       0.134500
     28 H9           3.8730     2.0100     0.0290 ha         1 1UR       0.134500
     29 H10          1.4570     2.3540     0.0210 ha         1 1UR       0.099500
@<TRIPOS>BOND
     1     1     2 1   
     2     1    11 2   
     3     1    21 1   
     4     2     3 2   
     5     2     4 1   
     6     4     5 ar  
     7     4     9 ar  
     8     5     6 ar  
     9     5    22 1   
    10     6     7 ar  
    11     6    23 1   
    12     7     8 ar  
    13     7    24 1   
    14     8     9 ar  
    15     8    25 1   
    16     9    10 1   
    17    10    11 1   
    18    11    12 1   
    19    12    13 ar  
    20    12    20 ar  
    21    13    14 ar  
    22    13    26 1   
    23    14    15 ar  
    24    14    27 1   
    25    15    16 1   
    26    15    19 ar  
    27    16    17 1   
    28    16    18 1   
    29    19    20 ar  
    30    19    28 1   
    31    20    29 1   
@<TRIPOS>SUBSTRUCTURE
     1 1UR         1 TEMP              0 ****  ****    0 ROOT
