@<TRIPOS>MOLECULE
1UR
   29    31     1     0     0
SMALL
abcg2


@<TRIPOS>ATOM
      1 CAK         -1.1740     1.6070     0.2300 cc         1 1UR      -0.432200
      2 CAL         -2.6130     1.7250     0.2470 c          1 1UR       0.600900
      3 OAM         -3.2000     2.7890     0.4000 o          1 1UR      -0.574100
      4 CAN         -3.3230     0.4500     0.0780 ca         1 1UR      -0.227600
      5 CAO         -4.7200     0.3740     0.0840 ca         1 1UR      -0.030000
      6 CAP         -5.3550    -0.8390    -0.0730 ca         1 1UR      -0.161000
      7 CAQ         -4.6010    -2.0040    -0.2400 ca         1 1UR      -0.068000
      8 CAR         -3.2220    -1.9560    -0.2480 ca         1 1UR      -0.143000
      9 CAS         -2.5950    -0.7240    -0.0870 ca         1 1UR       0.160100
     10 OAT         -1.2430    -0.7220    -0.1070 os         1 1UR      -0.210200
     11 CAJ         -0.5570     0.4170     0.0510 cd         1 1UR       0.248900
     12 CAG          0.8950     0.2110     0.0250 ca         1 1UR      -0.129800
     13 CAF          1.4480    -1.0350     0.3260 ca         1 1UR      -0.095500
     14 CAE          2.8220    -1.2080     0.3210 ca         1 1UR      -0.101000
     15 CAD          3.6810    -0.1580     0.0110 ca         1 1UR      -0.097600
     16 CAB          5.1930    -0.3590     0.0090 c          1 1UR       0.710600
     17 OAC          5.8850     0.6450    -0.2450 o          1 1UR      -0.711000
     18 OAA          5.5990    -1.5080     0.2630 o          1 1UR      -0.711000
     19 CAI          3.1230     1.0810    -0.2990 ca         1 1UR      -0.101000
     20 CAH          1.7520     1.2660    -0.2940 ca         1 1UR      -0.095500
     21 H1          -0.5790     2.4960     0.3830 ha         1 1UR       0.217000
     22 H2          -5.2940     1.2820     0.2150 ha         1 1UR       0.131000
     23 H3          -6.4350    -0.8910    -0.0680 ha         1 1UR       0.111000
     24 H4          -5.0990    -2.9550    -0.3650 ha         1 1UR       0.110000
     25 H5          -2.6300    -2.8530    -0.3780 ha         1 1UR       0.133000
     26 H6           0.8150    -1.8740     0.5810 ha         1 1UR       0.099500
     27 H7           3.2350    -2.1770     0.5670 ha         1 1UR       0.134500
     28 H9           3.7690     1.9090    -0.5540 ha         1 1UR       0.134500
     29 H10          1.3510     2.2350    -0.5640 ha         1 1UR       0.099500
@<TRIPOS>BOND
     1     1     2 1   
     2     1    11 2   
     3     1    21 1   
     4     2     3 2   
     5     2     4 1   
     6     4     5 ar  
     7     4     9 ar  
     8     5     6 ar  
     9     5    22 1   
    10     6     7 ar  
    11     6    23 1   
    12     7     8 ar  
    13     7    24 1   
    14     8     9 ar  
    15     8    25 1   
    16     9    10 1   
    17    10    11 1   
    18    11    12 1   
    19    12    13 ar  
    20    12    20 ar  
    21    13    14 ar  
    22    13    26 1   
    23    14    15 ar  
    24    14    27 1   
    25    15    16 1   
    26    15    19 ar  
    27    16    17 1   
    28    16    18 1   
    29    19    20 ar  
    30    19    28 1   
    31    20    29 1   
@<TRIPOS>SUBSTRUCTURE
     1 1UR         1 TEMP              0 ****  ****    0 ROOT
