@<TRIPOS>MOLECULE
1US
   42    43     1     0     0
SMALL
No Charge or Current Charge


@<TRIPOS>ATOM
      1 C10          6.5500     0.6160     0.3370 c3         1 1US      -0.075400
      2 C15         -3.2990    -0.2420    -0.1390 ca         1 1US       0.128100
      3 C17         -5.3690    -0.0500     1.1370 ca         1 1US      -0.074000
      4 C20         -3.3640    -1.6460    -0.0250 ca         1 1US      -0.169000
      5 C01          0.9190    -0.9330     0.5420 ca         1 1US      -0.141000
      6 C02         -0.4250    -0.5260     0.4720 ca         1 1US      -0.073000
      7 C03         -0.9570    -0.0620    -0.7480 ca         1 1US      -0.014900
      8 C04         -0.1290     0.0130    -1.8860 ca         1 1US       0.149100
      9 C05          1.2120    -0.3950    -1.8110 ca         1 1US      -0.145000
     10 C06          1.7430    -0.8740    -0.5980 ca         1 1US      -0.034300
     11 C07          3.2000    -1.3100    -0.5170 c3         1 1US      -0.035100
     12 C08          4.1330    -0.1410    -0.1350 c3         1 1US      -0.072400
     13 C09          5.6190    -0.5560    -0.0450 c3         1 1US      -0.076400
     14 O14         -2.2700     0.3550    -0.8390 os         1 1US      -0.242200
     15 C16         -4.3110     0.5550     0.4350 ca         1 1US       0.085000
     16 C18         -5.4230    -1.4500     1.2600 ca         1 1US      -0.132000
     17 C19         -4.4230    -2.2480     0.6780 ca         1 1US      -0.076000
     18 Cl1         -4.2640     2.3130     0.2930 cl         1 1US      -0.183000
     19 H1           6.4440     1.4170    -0.4050 hc         1 1US       0.038700
     20 H2           6.2320     1.0290     1.3020 hc         1 1US       0.038700
     21 H4          -6.1450     0.5670     1.5840 ha         1 1US       0.130000
     22 H5          -2.5990    -2.2680    -0.4820 ha         1 1US       0.132000
     23 H6           1.3220    -1.2910     1.4870 ha         1 1US       0.120000
     24 H7          -1.0450    -0.5680     1.3650 ha         1 1US       0.130000
     25 H8           1.8400    -0.3350    -2.6960 ha         1 1US       0.132000
     26 H9           3.3100    -2.1150     0.2200 hc         1 1US       0.048700
     27 H10          3.5210    -1.7290    -1.4780 hc         1 1US       0.048700
     28 H11          4.0260     0.6590    -0.8780 hc         1 1US       0.044700
     29 H12          5.9370    -0.9690    -1.0100 hc         1 1US       0.036700
     30 H13         -1.5690     0.7170    -2.9050 ho         1 1US       0.483000
     31 H14         -6.2430    -1.9160     1.8030 ha         1 1US       0.121000
     32 H15         -4.4700    -3.3310     0.7680 ha         1 1US       0.118000
     33 C11          8.0350     0.2020     0.4280 c3         1 1US      -0.075400
     34 C12          8.9650     1.3700     0.8090 c3         1 1US      -0.088100
     35 H3           3.8140     0.2720     0.8290 hc         1 1US       0.044700
     36 H16          5.7250    -1.3570     0.6970 hc         1 1US       0.036700
     37 H17          8.1450    -0.5980     1.1700 hc         1 1US       0.036200
     38 H18          8.3580    -0.2100    -0.5370 hc         1 1US       0.036200
     39 H19         10.0060     1.0290     0.8600 hc         1 1US       0.031700
     40 H20          8.9040     2.1740     0.0640 hc         1 1US       0.031700
     41 H21          8.6900     1.7820     1.7870 hc         1 1US       0.031700
     42 O13         -0.6300     0.4790    -3.0660 oh         1 1US      -0.529100
@<TRIPOS>BOND
     1     1    13 1   
     2     1    19 1   
     3     1    20 1   
     4     1    33 1   
     5     2     4 ar  
     6     2    14 1   
     7     2    15 ar  
     8     3    15 ar  
     9     3    16 ar  
    10     3    21 1   
    11     4    17 ar  
    12     4    22 1   
    13     5     6 ar  
    14     5    10 ar  
    15     5    23 1   
    16     6     7 ar  
    17     6    24 1   
    18     7     8 ar  
    19     7    14 1   
    20     8     9 ar  
    21     8    42 1   
    22     9    10 ar  
    23     9    25 1   
    24    10    11 1   
    25    11    12 1   
    26    11    26 1   
    27    11    27 1   
    28    12    13 1   
    29    12    28 1   
    30    12    35 1   
    31    13    29 1   
    32    13    36 1   
    33    15    18 1   
    34    16    17 ar  
    35    16    31 1   
    36    17    32 1   
    37    30    42 1   
    38    33    34 1   
    39    33    37 1   
    40    33    38 1   
    41    34    39 1   
    42    34    40 1   
    43    34    41 1   
@<TRIPOS>SUBSTRUCTURE
     1 1US         1 TEMP              0 ****  ****    0 ROOT
