@<TRIPOS>MOLECULE
1US
   42    43     1     0     0
SMALL
bcc


@<TRIPOS>ATOM
      1 C10          6.6200     0.5460     0.0480 c3         1 1US      -0.075400
      2 C15         -3.2460    -0.1560     0.0750 ca         1 1US       0.128100
      3 C17         -5.6350    -0.4660     0.2580 ca         1 1US      -0.092000
      4 C20         -3.0880    -1.5270    -0.0790 ca         1 1US      -0.187000
      5 C01          0.9820    -0.5980     1.2340 ca         1 1US      -0.159000
      6 C02         -0.3240    -0.1350     1.2500 ca         1 1US      -0.091000
      7 C03         -0.9300     0.2590     0.0710 ca         1 1US      -0.014900
      8 C04         -0.2370     0.2090    -1.1380 ca         1 1US       0.149100
      9 C05          1.0730    -0.2580    -1.1390 ca         1 1US      -0.163000
     10 C06          1.6900    -0.6730     0.0360 ca         1 1US      -0.034300
     11 C07          3.1110    -1.1620     0.0100 c3         1 1US      -0.035100
     12 C08          4.1360    -0.0290     0.0370 c3         1 1US      -0.072400
     13 C09          5.5660    -0.5530     0.0430 c3         1 1US      -0.076400
     14 O14         -2.2220     0.7380     0.0620 os         1 1US      -0.242200
     15 C16         -4.5280     0.3650     0.2430 ca         1 1US      -0.006600
     16 C18         -5.4720    -1.8350     0.1060 ca         1 1US      -0.150000
     17 C19         -4.1990    -2.3590    -0.0620 ca         1 1US      -0.094000
     18 CL1         -4.7220     2.0720     0.4300 cl         1 1US      -0.091400
     19 H1           6.4880     1.1850    -0.8330 hc         1 1US       0.038700
     20 H2           6.4680     1.1970     0.9170 hc         1 1US       0.038700
     21 H4          -6.6210    -0.0400     0.3910 ha         1 1US       0.148000
     22 H5          -2.1030    -1.9540    -0.2150 ha         1 1US       0.150000
     23 H6           1.4480    -0.9120     2.1600 ha         1 1US       0.138000
     24 H7          -0.8790    -0.0820     2.1790 ha         1 1US       0.148000
     25 H8           1.6090    -0.3060    -2.0800 ha         1 1US       0.150000
     26 H9           3.2820    -1.8210     0.8660 hc         1 1US       0.048700
     27 H10          3.2730    -1.7700    -0.8840 hc         1 1US       0.048700
     28 H11          3.9850     0.6230    -0.8300 hc         1 1US       0.044700
     29 H12          5.7170    -1.1970    -0.8300 hc         1 1US       0.036700
     30 H13         -1.6470     1.0070    -2.1560 ho         1 1US       0.444000
     31 H14         -6.3360    -2.4840     0.1180 ha         1 1US       0.139000
     32 H15         -4.0610    -3.4250    -0.1830 ha         1 1US       0.136000
     33 C11          8.0440     0.0040     0.0690 c3         1 1US      -0.075400
     34 C12          9.1000     1.1000     0.0670 c3         1 1US      -0.088100
     35 H3           3.9690     0.5960     0.9210 hc         1 1US       0.044700
     36 H16          5.7080    -1.1970     0.9180 hc         1 1US       0.036700
     37 H17          8.1740    -0.6300     0.9520 hc         1 1US       0.036200
     38 H18          8.1920    -0.6510    -0.7960 hc         1 1US       0.036200
     39 H19         10.1080     0.6860     0.0810 hc         1 1US       0.031700
     40 H20          9.0140     1.7290    -0.8220 hc         1 1US       0.031700
     41 H21          8.9980     1.7480     0.9390 hc         1 1US       0.031700
     42 O13         -0.7920     0.5860    -2.3040 oh         1 1US      -0.490100
@<TRIPOS>BOND
     1     1    13 1   
     2     1    19 1   
     3     1    20 1   
     4     1    33 1   
     5     2     4 ar  
     6     2    14 1   
     7     2    15 ar  
     8     3    15 ar  
     9     3    16 ar  
    10     3    21 1   
    11     4    17 ar  
    12     4    22 1   
    13     5     6 ar  
    14     5    10 ar  
    15     5    23 1   
    16     6     7 ar  
    17     6    24 1   
    18     7     8 ar  
    19     7    14 1   
    20     8     9 ar  
    21     8    42 1   
    22     9    10 ar  
    23     9    25 1   
    24    10    11 1   
    25    11    12 1   
    26    11    26 1   
    27    11    27 1   
    28    12    13 1   
    29    12    28 1   
    30    12    35 1   
    31    13    29 1   
    32    13    36 1   
    33    15    18 1   
    34    16    17 ar  
    35    16    31 1   
    36    17    32 1   
    37    30    42 1   
    38    33    34 1   
    39    33    37 1   
    40    33    38 1   
    41    34    39 1   
    42    34    40 1   
    43    34    41 1   
@<TRIPOS>SUBSTRUCTURE
     1 1US         1 TEMP              0 ****  ****    0 ROOT
