@<TRIPOS>MOLECULE
1UT
   35    37     1     0     0
SMALL
No Charge or Current Charge


@<TRIPOS>ATOM
      1 CAA          5.8070     1.5500     0.1400 c3         1 1UT       0.218100
      2 NAB          5.1440     0.2260     0.0660 nh         1 1UT      -0.823400
      3 CAC          6.0230    -0.9680     0.0420 c3         1 1UT       0.218100
      4 CAD          3.7320     0.1060     0.0190 ca         1 1UT       0.369000
      5 CAI          3.0900    -1.0380     0.5290 ca         1 1UT      -0.211500
      6 CAH          1.6910    -1.1600     0.4850 ca         1 1UT      -0.016000
      7 CAE          2.9410     1.1300    -0.5330 ca         1 1UT      -0.211500
      8 CAF          1.5410     1.0140    -0.5800 ca         1 1UT      -0.016000
      9 CAG          0.9010    -0.1360    -0.0780 ca         1 1UT      -0.150800
     10 CAJ         -0.5600    -0.2430    -0.1250 cc         1 1UT       0.238900
     11 OAT         -1.3010     0.9270    -0.0810 os         1 1UT      -0.223200
     12 CAS         -2.6750     0.7920     0.0600 ca         1 1UT       0.154100
     13 CAR         -3.4020     1.9640     0.3360 ca         1 1UT      -0.144000
     14 CAQ         -4.8000     1.9300     0.4640 ca         1 1UT      -0.060000
     15 CAP         -5.4850     0.7160     0.3060 ca         1 1UT      -0.149000
     16 CAO         -4.7730    -0.4600     0.0190 ca         1 1UT      -0.026000
     17 CAN         -3.3670    -0.4210    -0.1060 ca         1 1UT      -0.225600
     18 CAL         -2.5910    -1.6390    -0.4060 c          1 1UT       0.598900
     19 OAM         -3.1090    -2.7220    -0.6450 o          1 1UT      -0.554100
     20 CAK         -1.1560    -1.4600    -0.3710 cd         1 1UT      -0.411200
     21 H1           5.9260     1.9780    -0.8650 h1         1 1UT       0.039700
     22 H2           5.2170     2.2440     0.7530 h1         1 1UT       0.039700
     23 H3           6.8000     1.4640     0.6020 h1         1 1UT       0.039700
     24 H4           6.1500    -1.3740     1.0540 h1         1 1UT       0.039700
     25 H5           5.5960    -1.7490    -0.6020 h1         1 1UT       0.039700
     26 H6           7.0140    -0.7160    -0.3590 h1         1 1UT       0.039700
     27 H7           3.6700    -1.8370     0.9790 ha         1 1UT       0.116500
     28 H8           1.2240    -2.0480     0.9050 ha         1 1UT       0.119500
     29 H9           3.4050     2.0210    -0.9430 ha         1 1UT       0.116500
     30 H10          0.9560     1.8200    -1.0200 ha         1 1UT       0.119500
     31 H11         -2.8730     2.9070     0.4520 ha         1 1UT       0.131000
     32 H12         -5.3510     2.8430     0.6820 ha         1 1UT       0.117000
     33 H13         -6.5680     0.6850     0.4020 ha         1 1UT       0.120000
     34 H14         -5.3140    -1.3970    -0.1050 ha         1 1UT       0.137000
     35 H15         -0.5870    -2.3650    -0.5340 ha         1 1UT       0.210000
@<TRIPOS>BOND
     1     1     2 1   
     2     1    21 1   
     3     1    22 1   
     4     1    23 1   
     5     2     3 1   
     6     2     4 1   
     7     3    24 1   
     8     3    25 1   
     9     3    26 1   
    10     4     5 ar  
    11     4     7 ar  
    12     5     6 ar  
    13     5    27 1   
    14     6     9 ar  
    15     6    28 1   
    16     7     8 ar  
    17     7    29 1   
    18     8     9 ar  
    19     8    30 1   
    20     9    10 1   
    21    10    11 1   
    22    10    20 2   
    23    11    12 1   
    24    12    13 ar  
    25    12    17 ar  
    26    13    14 ar  
    27    13    31 1   
    28    14    15 ar  
    29    14    32 1   
    30    15    16 ar  
    31    15    33 1   
    32    16    17 ar  
    33    16    34 1   
    34    17    18 1   
    35    18    19 2   
    36    18    20 1   
    37    20    35 1   
@<TRIPOS>SUBSTRUCTURE
     1 1UT         1 TEMP              0 ****  ****    0 ROOT
