@<TRIPOS>MOLECULE
1UT
   35    37     1     0     0
SMALL
abcg2


@<TRIPOS>ATOM
      1 CAA          5.6210     1.6030    -0.1440 c3         1 1UT       0.218100
      2 NAB          5.0570     0.2830     0.0250 nh         1 1UT      -0.823400
      3 CAC          5.9350    -0.8590     0.1470 c3         1 1UT       0.218100
      4 CAD          3.7140     0.1150     0.0430 ca         1 1UT       0.369000
      5 CAI          3.1320    -1.1630     0.2100 ca         1 1UT      -0.211500
      6 CAH          1.7670    -1.3280     0.2100 ca         1 1UT      -0.016000
      7 CAE          2.8290     1.2050    -0.1030 ca         1 1UT      -0.211500
      8 CAF          1.4630     1.0210    -0.0990 ca         1 1UT      -0.016000
      9 CAG          0.8910    -0.2480     0.0470 ca         1 1UT      -0.150800
     10 CAJ         -0.5500    -0.4450     0.0210 cc         1 1UT       0.238900
     11 OAT         -1.2330     0.7060     0.1170 os         1 1UT      -0.223200
     12 CAS         -2.5840     0.7220     0.0910 ca         1 1UT       0.154100
     13 CAR         -3.1990     1.9680     0.1800 ca         1 1UT      -0.144000
     14 CAQ         -4.5770     2.0300     0.1630 ca         1 1UT      -0.060000
     15 CAP         -5.3430     0.8660     0.0570 ca         1 1UT      -0.149000
     16 CAO         -4.7200    -0.3600    -0.0310 ca         1 1UT      -0.026000
     17 CAN         -3.3250    -0.4510    -0.0150 ca         1 1UT      -0.225600
     18 CAL         -2.6250    -1.7400    -0.1130 c          1 1UT       0.598900
     19 OAM         -3.2280    -2.8040    -0.2130 o          1 1UT      -0.554100
     20 CAK         -1.1910    -1.6370    -0.0970 cd         1 1UT      -0.411200
     21 H1           5.3080     2.0650    -1.0850 h1         1 1UT       0.039700
     22 H2           5.3400     2.2760     0.6700 h1         1 1UT       0.039700
     23 H3           6.7040     1.5330    -0.1550 h1         1 1UT       0.039700
     24 H4           5.8270    -1.3620     1.1120 h1         1 1UT       0.039700
     25 H5           5.7560    -1.5960    -0.6390 h1         1 1UT       0.039700
     26 H6           6.9660    -0.5300     0.0620 h1         1 1UT       0.039700
     27 H7           3.7530    -2.0360     0.3470 ha         1 1UT       0.116500
     28 H8           1.3840    -2.3290     0.3590 ha         1 1UT       0.119500
     29 H9           3.2080     2.2090    -0.2280 ha         1 1UT       0.116500
     30 H10          0.8390     1.8950    -0.2270 ha         1 1UT       0.119500
     31 H11         -2.5980     2.8640     0.2630 ha         1 1UT       0.131000
     32 H12         -5.0650     2.9930     0.2330 ha         1 1UT       0.117000
     33 H13         -6.4230     0.9300     0.0450 ha         1 1UT       0.120000
     34 H14         -5.3030    -1.2670    -0.1150 ha         1 1UT       0.137000
     35 H15         -0.6130    -2.5440    -0.1980 ha         1 1UT       0.210000
@<TRIPOS>BOND
     1     1     2 1   
     2     1    21 1   
     3     1    22 1   
     4     1    23 1   
     5     2     3 1   
     6     2     4 1   
     7     3    24 1   
     8     3    25 1   
     9     3    26 1   
    10     4     5 ar  
    11     4     7 ar  
    12     5     6 ar  
    13     5    27 1   
    14     6     9 ar  
    15     6    28 1   
    16     7     8 ar  
    17     7    29 1   
    18     8     9 ar  
    19     8    30 1   
    20     9    10 1   
    21    10    11 1   
    22    10    20 2   
    23    11    12 1   
    24    12    13 ar  
    25    12    17 ar  
    26    13    14 ar  
    27    13    31 1   
    28    14    15 ar  
    29    14    32 1   
    30    15    16 ar  
    31    15    33 1   
    32    16    17 ar  
    33    16    34 1   
    34    17    18 1   
    35    18    19 2   
    36    18    20 1   
    37    20    35 1   
@<TRIPOS>SUBSTRUCTURE
     1 1UT         1 TEMP              0 ****  ****    0 ROOT
