@<TRIPOS>MOLECULE
1UV
   46    50     1     0     0
SMALL
bcc


@<TRIPOS>ATOM
      1 N01         -1.8480    -1.2770    -0.1360 na         1 1UV      -0.504800
      2 C02         -1.6430    -2.6430     0.2950 cx         1 1UV       0.169500
      3 C03         -1.0100    -2.9080     1.6200 cx         1 1UV      -0.141400
      4 C04         -2.4710    -3.1580     1.4310 cx         1 1UV      -0.141400
      5 C05         -3.1220    -0.9480    -0.4460 cc         1 1UV       0.065000
      6 C06         -3.6280     0.3090    -0.5520 cd         1 1UV      -0.293400
      7 C07         -5.0680     0.4540    -1.0200 c          1 1UV       0.938800
      8 O08         -5.4730     1.5980    -1.2850 o          1 1UV      -0.817800
      9 O09         -5.7210    -0.6060    -1.1270 o          1 1UV      -0.817800
     10 C10         -2.7860     1.4060    -0.1340 c          1 1UV       0.592900
     11 O11         -3.1540     2.5660     0.0340 o          1 1UV      -0.540100
     12 C12         -1.3700     1.0440     0.1010 ca         1 1UV      -0.207600
     13 C13         -0.8920    -0.2740    -0.0050 ca         1 1UV       0.214600
     14 C14          0.4980    -0.5260     0.0360 ca         1 1UV      -0.169300
     15 C15          1.1460    -1.8430    -0.3410 c3         1 1UV       0.199700
     16 O16          1.9970    -1.7240    -1.4610 os         1 1UV      -0.404600
     17 C17          3.3480    -1.4550    -1.1710 c3         1 1UV       0.133400
     18 C18          3.5450    -0.0170    -0.7210 c5         1 1UV       0.222500
     19 N19          2.7400     0.2720     0.4580 nh         1 1UV      -0.746000
     20 C20          3.5410     0.6950     1.5990 c5         1 1UV       0.243800
     21 C21          4.9010     0.1070     1.2670 c5         1 1UV      -0.130400
     22 C22          4.9790     0.2960    -0.2500 c5         1 1UV       0.145500
     23 N23          5.9950    -0.4370    -0.9770 n8         1 1UV      -0.877800
     24 C24          1.3760     0.5140     0.3610 ca         1 1UV       0.168600
     25 C25          0.8490     1.7990     0.5470 ca         1 1UV       0.030900
     26 F26          1.6910     2.8110     0.8120 f          1 1UV      -0.162900
     27 C27         -0.4770     2.0750     0.3920 ca         1 1UV      -0.077000
     28 H021        -1.4460    -3.3440    -0.5080 h1         1 1UV       0.087700
     29 H032        -0.3330    -3.7500     1.6860 hc         1 1UV       0.079700
     30 H031        -0.7240    -2.0570     2.2250 hc         1 1UV       0.079700
     31 H042        -3.1610    -2.4740     1.9100 hc         1 1UV       0.079700
     32 H041        -2.8250    -4.1780     1.3580 hc         1 1UV       0.079700
     33 H051        -3.7800    -1.7920    -0.6010 h4         1 1UV       0.175000
     34 H152         1.6960    -2.2410     0.5200 h1         1 1UV       0.046200
     35 H151         0.4070    -2.5820    -0.6240 h1         1 1UV       0.046200
     36 H171         3.7160    -2.1490    -0.4010 h1         1 1UV       0.042200
     37 H172         3.9070    -1.6440    -2.0900 h1         1 1UV       0.042200
     38 H181         3.2670     0.6420    -1.5530 h1         1 1UV       0.068700
     39 H202         3.6220     1.7810     1.7050 h1         1 1UV       0.041700
     40 H201         3.1210     0.3030     2.5280 h1         1 1UV       0.041700
     41 H211         5.7140     0.6090     1.7930 hc         1 1UV       0.044200
     42 H212         4.9390    -0.9560     1.5230 hc         1 1UV       0.044200
     43 H221         5.1530     1.3590    -0.4420 h1         1 1UV       0.064700
     44 H231         6.9050    -0.0550    -0.7540 hn         1 1UV       0.336300
     45 H232         6.0220    -1.4020    -0.6710 hn         1 1UV       0.336300
     46 H271        -0.8370     3.0930     0.4710 ha         1 1UV       0.170000
@<TRIPOS>BOND
     1     1     2 1   
     2     1     5 1   
     3     1    13 1   
     4     2     3 1   
     5     2     4 1   
     6     2    28 1   
     7     3     4 1   
     8     3    29 1   
     9     3    30 1   
    10     4    31 1   
    11     4    32 1   
    12     5     6 2   
    13     5    33 1   
    14     6     7 1   
    15     6    10 1   
    16     7     8 1   
    17     7     9 1   
    18    10    11 2   
    19    10    12 1   
    20    12    13 ar  
    21    12    27 ar  
    22    13    14 ar  
    23    14    15 1   
    24    14    24 ar  
    25    15    16 1   
    26    15    34 1   
    27    15    35 1   
    28    16    17 1   
    29    17    18 1   
    30    17    36 1   
    31    17    37 1   
    32    18    19 1   
    33    18    22 1   
    34    18    38 1   
    35    19    20 1   
    36    19    24 1   
    37    20    21 1   
    38    20    39 1   
    39    20    40 1   
    40    21    22 1   
    41    21    41 1   
    42    21    42 1   
    43    22    23 1   
    44    22    43 1   
    45    23    44 1   
    46    23    45 1   
    47    24    25 ar  
    48    25    26 1   
    49    25    27 ar  
    50    27    46 1   
@<TRIPOS>SUBSTRUCTURE
     1 1UV         1 TEMP              0 ****  ****    0 ROOT
