@<TRIPOS>MOLECULE
1UV
   46    50     1     0     0
SMALL
No Charge or Current Charge


@<TRIPOS>ATOM
      1 N01         -1.8300    -1.3300    -0.1910 na         1 1UV      -0.643200
      2 C02         -1.7630    -2.5790     0.5880 cx         1 1UV       0.169500
      3 C03         -1.1540    -2.7220     1.9630 cx         1 1UV      -0.141400
      4 C04         -2.6410    -2.8800     1.7780 cx         1 1UV      -0.141400
      5 C05         -3.0030    -1.1190    -0.9290 cc         1 1UV       0.015000
      6 C06         -3.5670     0.1380    -0.7280 cd         1 1UV      -0.293400
      7 C07         -4.9410     0.3620    -1.2570 c          1 1UV       0.728200
      8 O08         -5.4790     1.4520    -1.1550 o          1 1UV      -0.712500
      9 O09         -5.4990    -0.5700    -1.8190 o          1 1UV      -0.712500
     10 C10         -2.8530     1.2130     0.0020 c          1 1UV       0.592900
     11 O11         -3.3650     2.2590     0.3850 o          1 1UV      -0.540100
     12 C12         -1.4020     0.9850     0.2170 ca         1 1UV      -0.207600
     13 C13         -0.8980    -0.2900    -0.0330 ca         1 1UV       0.353000
     14 C14          0.5110    -0.5040    -0.0480 ca         1 1UV      -0.169300
     15 C15          1.1230    -1.8520    -0.4580 c3         1 1UV       0.222900
     16 O16          1.9860    -1.7080    -1.6080 os         1 1UV      -0.451000
     17 C17          3.3810    -1.4420    -1.3230 c3         1 1UV       0.156600
     18 C18          3.5710     0.0240    -0.8280 c5         1 1UV       0.222500
     19 N19          2.7700     0.3350     0.3910 nh         1 1UV      -0.884400
     20 C20          3.6110     0.5570     1.5950 c5         1 1UV       0.243800
     21 C21          4.9560    -0.0760     1.1510 c5         1 1UV      -0.130400
     22 C22          5.0220     0.3850    -0.3260 c5         1 1UV       0.145500
     23 N23          6.1590    -0.2090    -1.0660 n8         1 1UV      -0.988200
     24 C24          1.3720     0.5490     0.3460 ca         1 1UV       0.307000
     25 C25          0.8280     1.8160     0.6750 ca         1 1UV       0.066000
     26 F26          1.6260     2.8570     1.0240 f          1 1UV      -0.198000
     27 C27         -0.5460     2.0400     0.5810 ca         1 1UV      -0.059000
     28 H021        -1.6060    -3.3960    -0.1190 h1         1 1UV       0.087700
     29 H032        -0.5660    -3.6150     2.1600 hc         1 1UV       0.079700
     30 H031        -0.8000    -1.8230     2.4600 hc         1 1UV       0.079700
     31 H042        -3.2850    -2.0840     2.1420 hc         1 1UV       0.079700
     32 H041        -3.0630    -3.8790     1.8510 hc         1 1UV       0.079700
     33 H051        -3.5000    -1.9710    -1.3930 h4         1 1UV       0.225000
     34 H152         1.6620    -2.2890     0.3940 h1         1 1UV       0.046200
     35 H151         0.3420    -2.5640    -0.7340 h1         1 1UV       0.046200
     36 H171         3.7610    -2.1440    -0.5690 h1         1 1UV       0.042200
     37 H172         3.9770    -1.5790    -2.2340 h1         1 1UV       0.042200
     38 H181         3.2980     0.6890    -1.6600 h1         1 1UV       0.068700
     39 H202         3.7310     1.6270     1.8110 h1         1 1UV       0.041700
     40 H201         3.2050     0.0610     2.4890 h1         1 1UV       0.041700
     41 H211         5.7970     0.2910     1.7500 hc         1 1UV       0.044200
     42 H212         4.9340    -1.1680     1.2460 hc         1 1UV       0.044200
     43 H221         5.1470     1.4780    -0.3690 h1         1 1UV       0.064700
     44 H231         7.0370     0.1470    -0.6690 hn         1 1UV       0.391500
     45 H232         6.2020    -1.2140    -0.8630 hn         1 1UV       0.391500
     46 H271        -0.9380     3.0360     0.7790 ha         1 1UV       0.152000
@<TRIPOS>BOND
     1     1     2 1   
     2     1     5 1   
     3     1    13 1   
     4     2     3 1   
     5     2     4 1   
     6     2    28 1   
     7     3     4 1   
     8     3    29 1   
     9     3    30 1   
    10     4    31 1   
    11     4    32 1   
    12     5     6 2   
    13     5    33 1   
    14     6     7 1   
    15     6    10 1   
    16     7     8 1   
    17     7     9 1   
    18    10    11 2   
    19    10    12 1   
    20    12    13 ar  
    21    12    27 ar  
    22    13    14 ar  
    23    14    15 1   
    24    14    24 ar  
    25    15    16 1   
    26    15    34 1   
    27    15    35 1   
    28    16    17 1   
    29    17    18 1   
    30    17    36 1   
    31    17    37 1   
    32    18    19 1   
    33    18    22 1   
    34    18    38 1   
    35    19    20 1   
    36    19    24 1   
    37    20    21 1   
    38    20    39 1   
    39    20    40 1   
    40    21    22 1   
    41    21    41 1   
    42    21    42 1   
    43    22    23 1   
    44    22    43 1   
    45    23    44 1   
    46    23    45 1   
    47    24    25 ar  
    48    25    26 1   
    49    25    27 ar  
    50    27    46 1   
@<TRIPOS>SUBSTRUCTURE
     1 1UV         1 TEMP              0 ****  ****    0 ROOT
