@<TRIPOS>MOLECULE
1UW
   36    38     1     0     0
SMALL
No Charge or Current Charge


@<TRIPOS>ATOM
      1 CAV         -7.0540     2.0020     0.3420 c3         1 1UW      -0.098100
      2 CAS         -6.5980     0.6070    -0.1110 c3         1 1UW       0.169600
      3 OAP         -5.1630     0.5740    -0.0220 os         1 1UW      -0.447100
      4 CAG         -4.5180    -0.5840    -0.3790 c          1 1UW       0.607700
      5 OAK         -5.1020    -1.5880    -0.7680 o          1 1UW      -0.488000
      6 CAI         -3.0130    -0.5080    -0.2470 ca         1 1UW      -0.122600
      7 CAO         -2.2190    -1.6260    -0.5820 ca         1 1UW      -0.063000
      8 CAM         -0.8190    -1.5740    -0.4650 ca         1 1UW      -0.092500
      9 CAN         -2.3690     0.6670     0.2050 ca         1 1UW      -0.063000
     10 CAL         -0.9690     0.7160     0.3190 ca         1 1UW      -0.092500
     11 CAH         -0.1780    -0.4040    -0.0070 ca         1 1UW      -0.043800
     12 CAA          1.2830    -0.3350     0.1130 cc         1 1UW       0.198900
     13 OAC          1.8920     0.9010    -0.0480 os         1 1UW      -0.216200
     14 CAF          3.2790     0.9130    -0.1130 ca         1 1UW       0.151100
     15 CAR          3.8840     2.1230    -0.4990 ca         1 1UW      -0.141000
     16 CAU          5.2830     2.2400    -0.5620 ca         1 1UW      -0.057000
     17 CAT          6.0900     1.1420    -0.2280 ca         1 1UW      -0.146000
     18 CAQ          5.4990    -0.0690     0.1690 ca         1 1UW      -0.025000
     19 CAE          4.0930    -0.1820     0.2280 ca         1 1UW      -0.226600
     20 CAD          3.4440    -1.4410     0.6420 c          1 1UW       0.595900
     21 OAJ          4.0670    -2.4200     1.0300 o          1 1UW      -0.538100
     22 CAB          2.0010    -1.4370     0.5270 cd         1 1UW      -0.380200
     23 H1          -8.1470     2.0790     0.2920 hc         1 1UW       0.048033
     24 H2          -6.7430     2.1940     1.3750 hc         1 1UW       0.048033
     25 H3          -6.6250     2.7770    -0.3040 hc         1 1UW       0.048033
     26 H4          -7.0490    -0.1550     0.5390 h1         1 1UW       0.050700
     27 H5          -6.9310     0.4280    -1.1420 h1         1 1UW       0.050700
     28 H6          -2.6850    -2.5430    -0.9390 ha         1 1UW       0.138500
     29 H7          -0.2350    -2.4470    -0.7470 ha         1 1UW       0.130500
     30 H8          -2.9470     1.5500     0.4700 ha         1 1UW       0.138500
     31 H9          -0.5000     1.6320     0.6720 ha         1 1UW       0.130500
     32 H10          3.2610     2.9770    -0.7510 ha         1 1UW       0.133000
     33 H11          5.7390     3.1800    -0.8660 ha         1 1UW       0.120000
     34 H12          7.1730     1.2280    -0.2740 ha         1 1UW       0.123000
     35 H13          6.1340    -0.9150     0.4290 ha         1 1UW       0.139000
     36 H14          1.5290    -2.3780     0.7780 ha         1 1UW       0.216000
@<TRIPOS>BOND
     1     1     2 1   
     2     1    23 1   
     3     1    24 1   
     4     1    25 1   
     5     2     3 1   
     6     2    26 1   
     7     2    27 1   
     8     3     4 1   
     9     4     5 2   
    10     4     6 1   
    11     6     7 ar  
    12     6     9 ar  
    13     7     8 ar  
    14     7    28 1   
    15     8    11 ar  
    16     8    29 1   
    17     9    10 ar  
    18     9    30 1   
    19    10    11 ar  
    20    10    31 1   
    21    11    12 1   
    22    12    13 1   
    23    12    22 2   
    24    13    14 1   
    25    14    15 ar  
    26    14    19 ar  
    27    15    16 ar  
    28    15    32 1   
    29    16    17 ar  
    30    16    33 1   
    31    17    18 ar  
    32    17    34 1   
    33    18    19 ar  
    34    18    35 1   
    35    19    20 1   
    36    20    21 2   
    37    20    22 1   
    38    22    36 1   
@<TRIPOS>SUBSTRUCTURE
     1 1UW         1 TEMP              0 ****  ****    0 ROOT
