@<TRIPOS>MOLECULE
1UW
   36    38     1     0     0
SMALL
abcg2


@<TRIPOS>ATOM
      1 CAV         -6.8200     2.1270     0.2150 c3         1 1UW      -0.098100
      2 CAS         -6.4460     0.6950    -0.0750 c3         1 1UW       0.169600
      3 OAP         -5.0120     0.6010    -0.0320 os         1 1UW      -0.447100
      4 CAG         -4.4540    -0.5750    -0.2440 c          1 1UW       0.607700
      5 OAK         -5.0730    -1.5850    -0.4800 o          1 1UW      -0.488000
      6 CAI         -2.9690    -0.5250    -0.1610 ca         1 1UW      -0.122600
      7 CAO         -2.2530    -1.6950    -0.4060 ca         1 1UW      -0.063000
      8 CAM         -0.8730    -1.6960    -0.3420 ca         1 1UW      -0.092500
      9 CAN         -2.2790     0.6440     0.1470 ca         1 1UW      -0.063000
     10 CAL         -0.8960     0.6460     0.2080 ca         1 1UW      -0.092500
     11 CAH         -0.1790    -0.5270    -0.0300 ca         1 1UW      -0.043800
     12 CAA          1.2880    -0.5380     0.0460 cc         1 1UW       0.198900
     13 OAC          1.8210     0.6670    -0.1820 os         1 1UW      -0.216200
     14 CAF          3.1620     0.8460    -0.1390 ca         1 1UW       0.151100
     15 CAR          3.6290     2.1350    -0.3820 ca         1 1UW      -0.141000
     16 CAU          4.9890     2.3610    -0.3520 ca         1 1UW      -0.057000
     17 CAT          5.8820     1.3200    -0.0840 ca         1 1UW      -0.146000
     18 CAQ          5.4050     0.0500     0.1540 ca         1 1UW      -0.025000
     19 CAE          4.0300    -0.2080     0.1290 ca         1 1UW      -0.226600
     20 CAD          3.4860    -1.5490     0.3810 c          1 1UW       0.595900
     21 OAJ          4.1960    -2.5150     0.6230 o          1 1UW      -0.538100
     22 CAB          2.0420    -1.6210     0.3270 cd         1 1UW      -0.380200
     23 H1          -7.9050     2.2230     0.1870 hc         1 1UW       0.048033
     24 H2          -6.4830     2.4380     1.2040 hc         1 1UW       0.048033
     25 H3          -6.4050     2.8090    -0.5260 hc         1 1UW       0.048033
     26 H4          -6.8770     0.0190     0.6670 h1         1 1UW       0.050700
     27 H5          -6.8020     0.3880    -1.0600 h1         1 1UW       0.050700
     28 H6          -2.7730    -2.6080    -0.6600 ha         1 1UW       0.138500
     29 H7          -0.3370    -2.6100    -0.5630 ha         1 1UW       0.130500
     30 H8          -2.8100     1.5650     0.3470 ha         1 1UW       0.138500
     31 H9          -0.3870     1.5660     0.4590 ha         1 1UW       0.130500
     32 H10          2.9300     2.9350    -0.5890 ha         1 1UW       0.133000
     33 H11          5.3640     3.3590    -0.5400 ha         1 1UW       0.120000
     34 H12          6.9460     1.5130    -0.0650 ha         1 1UW       0.123000
     35 H13          6.0870    -0.7630     0.3620 ha         1 1UW       0.139000
     36 H14          1.5630    -2.5680     0.5360 ha         1 1UW       0.216000
@<TRIPOS>BOND
     1     1     2 1   
     2     1    23 1   
     3     1    24 1   
     4     1    25 1   
     5     2     3 1   
     6     2    26 1   
     7     2    27 1   
     8     3     4 1   
     9     4     5 2   
    10     4     6 1   
    11     6     7 ar  
    12     6     9 ar  
    13     7     8 ar  
    14     7    28 1   
    15     8    11 ar  
    16     8    29 1   
    17     9    10 ar  
    18     9    30 1   
    19    10    11 ar  
    20    10    31 1   
    21    11    12 1   
    22    12    13 1   
    23    12    22 2   
    24    13    14 1   
    25    14    15 ar  
    26    14    19 ar  
    27    15    16 ar  
    28    15    32 1   
    29    16    17 ar  
    30    16    33 1   
    31    17    18 ar  
    32    17    34 1   
    33    18    19 ar  
    34    18    35 1   
    35    19    20 1   
    36    20    21 2   
    37    20    22 1   
    38    22    36 1   
@<TRIPOS>SUBSTRUCTURE
     1 1UW         1 TEMP              0 ****  ****    0 ROOT
