@<TRIPOS>MOLECULE
1UX
   61    63     1     0     0
SMALL
No Charge or Current Charge


@<TRIPOS>ATOM
      1 CAC        -35.5240     8.2900     1.5270 c3         1 1UX      -0.118100
      2 CBF        -36.2150     8.5450     0.1670 c3         1 1UX       0.177000
      3 CAD        -37.6060     9.1870     0.3860 c3         1 1UX      -0.118100
      4 OAG        -36.4120     7.2670    -0.4550 oh         1 1UX      -0.651000
      5 CAN        -35.3030     9.4380    -0.7360 c3         1 1UX       0.170600
      6 OAT        -35.9470     9.6750    -2.0070 os         1 1UX      -0.321100
      7 CBB        -35.3730    10.4500    -3.0030 ca         1 1UX       0.112100
      8 CAK        -34.0990    11.0440    -2.8460 ca         1 1UX      -0.132000
      9 CBA        -36.0930    10.6440    -4.2040 ca         1 1UX       0.125100
     10 OAS        -37.3400    10.0550    -4.3360 os         1 1UX      -0.323100
     11 CAB        -38.1430    10.2010    -5.5210 c3         1 1UX       0.145900
     12 CAI        -35.5290    11.4310    -5.2310 ca         1 1UX      -0.175000
     13 CAH        -34.2630    12.0160    -5.0660 ca         1 1UX      -0.093000
     14 CAY        -33.5270    11.8320    -3.8730 ca         1 1UX      -0.134500
     15 CBE        -32.1950    12.4500    -3.6930 cc         1 1UX       0.517900
     16 NAR        -31.4970    12.3280    -2.5700 nd         1 1UX      -0.649000
     17 SAV        -31.4320    13.3930    -4.9520 ss         1 1UX      -0.067400
     18 CBD        -30.0850    13.6440    -3.8810 cc         1 1UX      -0.187300
     19 CAM        -28.9030    14.4700    -4.3300 c3         1 1UX      -0.016100
     20 CAL        -29.1840    15.9880    -4.3300 c3         1 1UX      -0.070400
     21 CAA        -29.4960    16.5610    -2.9320 c3         1 1UX      -0.090100
     22 CBC        -30.2880    13.0000    -2.6750 cd         1 1UX       0.289300
     23 CAO        -29.3360    12.9710    -1.5020 c3         1 1UX       0.021300
     24 SAU        -28.2800    11.4480    -1.4180 ss         1 1UX      -0.322300
     25 C2         -27.4370    11.4740    -2.9880 ca         1 1UX       0.315300
     26 N3         -28.0230    10.8190    -4.0100 nb         1 1UX      -0.294000
     27 N1         -26.2770    12.1580    -3.0450 nb         1 1UX      -0.294000
     28 C6         -25.6710    12.1880    -4.2350 ca         1 1UX       0.406400
     29 NAE        -24.5090    12.8750    -4.2970 nv         1 1UX      -1.068900
     30 C5         -26.1900    11.5550    -5.3580 ca         1 1UX      -0.376000
     31 C4         -27.3870    10.8720    -5.1830 ca         1 1UX       0.406400
     32 NAF        -27.9730    10.2180    -6.2110 nv         1 1UX      -1.068900
     33 H1         -36.1380     7.6470     2.1690 hc         1 1UX       0.046033
     34 H2         -34.5520     7.8020     1.3860 hc         1 1UX       0.046033
     35 H3         -35.3550     9.2350     2.0580 hc         1 1UX       0.046033
     36 H4         -38.2250     8.5730     1.0520 hc         1 1UX       0.046033
     37 H5         -37.5060    10.1800     0.8390 hc         1 1UX       0.046033
     38 H6         -38.1450     9.3010    -0.5630 hc         1 1UX       0.046033
     39 H7         -37.0720     6.7840     0.0860 ho         1 1UX       0.437000
     40 H8         -34.3380     8.9350    -0.8820 h1         1 1UX       0.046700
     41 H9         -35.1160    10.3900    -0.2210 h1         1 1UX       0.046700
     42 H10        -33.5410    10.8970    -1.9260 ha         1 1UX       0.142000
     43 H11        -39.0870     9.6540    -5.4090 h1         1 1UX       0.041700
     44 H12        -38.3810    11.2570    -5.7030 h1         1 1UX       0.041700
     45 H13        -37.6200     9.8000    -6.3980 h1         1 1UX       0.041700
     46 H14        -36.0560    11.6000    -6.1650 ha         1 1UX       0.120000
     47 H15        -33.8660    12.6160    -5.8820 ha         1 1UX       0.116000
     48 H16        -28.6160    14.1660    -5.3450 hc         1 1UX       0.066700
     49 H17        -28.0270    14.2730    -3.7030 hc         1 1UX       0.066700
     50 H18        -28.3100    16.5090    -4.7380 hc         1 1UX       0.039200
     51 H19        -30.0220    16.2040    -5.0040 hc         1 1UX       0.039200
     52 H20        -29.6530    17.6450    -2.9910 hc         1 1UX       0.033700
     53 H21        -30.4050    16.1090    -2.5160 hc         1 1UX       0.033700
     54 H22        -28.6660    16.3730    -2.2410 hc         1 1UX       0.033700
     55 H23        -28.6840    13.8520    -1.5420 h1         1 1UX       0.096700
     56 H24        -29.9200    13.0410    -0.5770 h1         1 1UX       0.096700
     57 H25        -24.0620    13.1430    -3.4240 hn         1 1UX       0.486000
     58 H26        -23.9000    12.7410    -5.1010 hn         1 1UX       0.486000
     59 H27        -25.6860    11.5890    -6.3180 ha         1 1UX       0.126000
     60 H28        -28.9330     9.9040    -6.0980 hn         1 1UX       0.486000
     61 H29        -27.6590    10.4080    -7.1590 hn         1 1UX       0.486000
@<TRIPOS>BOND
     1     1     2 1   
     2     1    33 1   
     3     1    34 1   
     4     1    35 1   
     5     2     3 1   
     6     2     4 1   
     7     2     5 1   
     8     3    36 1   
     9     3    37 1   
    10     3    38 1   
    11     4    39 1   
    12     5     6 1   
    13     5    40 1   
    14     5    41 1   
    15     6     7 1   
    16     7     8 ar  
    17     7     9 ar  
    18     8    14 ar  
    19     8    42 1   
    20     9    10 1   
    21     9    12 ar  
    22    10    11 1   
    23    11    43 1   
    24    11    44 1   
    25    11    45 1   
    26    12    13 ar  
    27    12    46 1   
    28    13    14 ar  
    29    13    47 1   
    30    14    15 1   
    31    15    16 2   
    32    15    17 1   
    33    16    22 1   
    34    17    18 1   
    35    18    19 1   
    36    18    22 2   
    37    19    20 1   
    38    19    48 1   
    39    19    49 1   
    40    20    21 1   
    41    20    50 1   
    42    20    51 1   
    43    21    52 1   
    44    21    53 1   
    45    21    54 1   
    46    22    23 1   
    47    23    24 1   
    48    23    55 1   
    49    23    56 1   
    50    24    25 1   
    51    25    26 ar  
    52    25    27 ar  
    53    26    31 ar  
    54    27    28 ar  
    55    28    29 1   
    56    28    30 ar  
    57    29    57 1   
    58    29    58 1   
    59    30    31 ar  
    60    30    59 1   
    61    31    32 1   
    62    32    60 1   
    63    32    61 1   
@<TRIPOS>SUBSTRUCTURE
     1 1UX         1 TEMP              0 ****  ****    0 ROOT
