@<TRIPOS>MOLECULE
1UX
   61    63     1     0     0
SMALL
abcg2


@<TRIPOS>ATOM
      1 CAC        -35.3050     7.8970     1.0360 c3         1 1UX      -0.118100
      2 CBF        -36.2660     8.4030    -0.0390 c3         1 1UX       0.177000
      3 CAD        -37.4820     9.0820     0.5890 c3         1 1UX      -0.118100
      4 OAG        -36.6890     7.3030    -0.8680 oh         1 1UX      -0.651000
      5 CAN        -35.5050     9.3460    -0.9610 c3         1 1UX       0.170600
      6 OAT        -36.3990     9.8790    -1.9360 os         1 1UX      -0.321100
      7 CBB        -35.9050    10.7480    -2.8520 ca         1 1UX       0.112100
      8 CAK        -34.5850    11.1580    -2.9160 ca         1 1UX      -0.132000
      9 CBA        -36.8420    11.2470    -3.7890 ca         1 1UX       0.125100
     10 OAS        -38.1110    10.7930    -3.6550 os         1 1UX      -0.323100
     11 CAB        -39.0950    11.2670    -4.5750 c3         1 1UX       0.145900
     12 CAI        -36.4180    12.1460    -4.7590 ca         1 1UX      -0.175000
     13 CAH        -35.0880    12.5540    -4.8140 ca         1 1UX      -0.093000
     14 CAY        -34.1590    12.0680    -3.9000 ca         1 1UX      -0.134500
     15 CBE        -32.7570    12.4810    -3.9300 cc         1 1UX       0.517900
     16 NAR        -31.8560    12.1180    -3.0570 nd         1 1UX      -0.649000
     17 SAV        -32.1150    13.5360    -5.1660 ss         1 1UX      -0.067400
     18 CBD        -30.5470    13.4590    -4.4300 cc         1 1UX      -0.187300
     19 CAM        -29.3920    14.2170    -5.0030 c3         1 1UX      -0.016100
     20 CAL        -29.4160    15.7220    -4.6840 c3         1 1UX      -0.070400
     21 CAA        -29.2780    16.0270    -3.1950 c3         1 1UX      -0.090100
     22 CBC        -30.6180    12.6610    -3.3200 cd         1 1UX       0.289300
     23 CAO        -29.4940    12.3450    -2.3890 c3         1 1UX       0.021300
     24 SAU        -28.6950    10.7230    -2.7230 ss         1 1UX      -0.322300
     25 C2         -27.1470    11.1770    -3.4730 ca         1 1UX       0.315300
     26 N3         -26.4600    10.1210    -3.8970 nb         1 1UX      -0.294000
     27 N1         -26.8000    12.4490    -3.5380 nb         1 1UX      -0.294000
     28 C6         -25.6140    12.7160    -4.1330 ca         1 1UX       0.406400
     29 NAE        -25.2920    14.0290    -4.2610 nv         1 1UX      -1.068900
     30 C5         -24.7990    11.6960    -4.6180 ca         1 1UX      -0.376000
     31 C4         -25.2640    10.3870    -4.4660 ca         1 1UX       0.406400
     32 NAF        -24.5270     9.3150    -4.8540 nv         1 1UX      -1.068900
     33 H1         -35.8130     7.1640     1.6640 hc         1 1UX       0.046033
     34 H2         -34.4350     7.4210     0.5800 hc         1 1UX       0.046033
     35 H3         -34.9640     8.7150     1.6740 hc         1 1UX       0.046033
     36 H4         -37.9970     8.3800     1.2480 hc         1 1UX       0.046033
     37 H5         -37.1780     9.9460     1.1830 hc         1 1UX       0.046033
     38 H6         -38.1760     9.4150    -0.1820 hc         1 1UX       0.046033
     39 H7         -37.1740     6.6820    -0.3100 ho         1 1UX       0.437000
     40 H8         -34.7000     8.7970    -1.4570 h1         1 1UX       0.046700
     41 H9         -35.0710    10.1580    -0.3720 h1         1 1UX       0.046700
     42 H10        -33.8610    10.7860    -2.2100 ha         1 1UX       0.142000
     43 H11        -40.0260    10.7860    -4.2870 h1         1 1UX       0.041700
     44 H12        -39.2030    12.3520    -4.5070 h1         1 1UX       0.041700
     45 H13        -38.8380    10.9890    -5.6000 h1         1 1UX       0.041700
     46 H14        -37.1200    12.5390    -5.4790 ha         1 1UX       0.120000
     47 H15        -34.7920    13.2600    -5.5790 ha         1 1UX       0.116000
     48 H16        -29.3770    14.0850    -6.0880 hc         1 1UX       0.066700
     49 H17        -28.4690    13.7800    -4.6180 hc         1 1UX       0.066700
     50 H18        -28.5960    16.1950    -5.2320 hc         1 1UX       0.039200
     51 H19        -30.3420    16.1580    -5.0690 hc         1 1UX       0.039200
     52 H20        -29.3040    17.1030    -3.0120 hc         1 1UX       0.033700
     53 H21        -30.0880    15.5700    -2.6220 hc         1 1UX       0.033700
     54 H22        -28.3340    15.6400    -2.8040 hc         1 1UX       0.033700
     55 H23        -28.6990    13.0830    -2.4380 h1         1 1UX       0.096700
     56 H24        -29.8680    12.2870    -1.3690 h1         1 1UX       0.096700
     57 H25        -25.8180    14.6910    -3.7140 hn         1 1UX       0.486000
     58 H26        -24.3450    14.2800    -4.4920 hn         1 1UX       0.486000
     59 H27        -23.8480    11.9060    -5.0880 ha         1 1UX       0.126000
     60 H28        -24.9880     8.4210    -4.9030 hn         1 1UX       0.486000
     61 H29        -23.7360     9.4550    -5.4610 hn         1 1UX       0.486000
@<TRIPOS>BOND
     1     1     2 1   
     2     1    33 1   
     3     1    34 1   
     4     1    35 1   
     5     2     3 1   
     6     2     4 1   
     7     2     5 1   
     8     3    36 1   
     9     3    37 1   
    10     3    38 1   
    11     4    39 1   
    12     5     6 1   
    13     5    40 1   
    14     5    41 1   
    15     6     7 1   
    16     7     8 ar  
    17     7     9 ar  
    18     8    14 ar  
    19     8    42 1   
    20     9    10 1   
    21     9    12 ar  
    22    10    11 1   
    23    11    43 1   
    24    11    44 1   
    25    11    45 1   
    26    12    13 ar  
    27    12    46 1   
    28    13    14 ar  
    29    13    47 1   
    30    14    15 1   
    31    15    16 2   
    32    15    17 1   
    33    16    22 1   
    34    17    18 1   
    35    18    19 1   
    36    18    22 2   
    37    19    20 1   
    38    19    48 1   
    39    19    49 1   
    40    20    21 1   
    41    20    50 1   
    42    20    51 1   
    43    21    52 1   
    44    21    53 1   
    45    21    54 1   
    46    22    23 1   
    47    23    24 1   
    48    23    55 1   
    49    23    56 1   
    50    24    25 1   
    51    25    26 ar  
    52    25    27 ar  
    53    26    31 ar  
    54    27    28 ar  
    55    28    29 1   
    56    28    30 ar  
    57    29    57 1   
    58    29    58 1   
    59    30    31 ar  
    60    30    59 1   
    61    31    32 1   
    62    32    60 1   
    63    32    61 1   
@<TRIPOS>SUBSTRUCTURE
     1 1UX         1 TEMP              0 ****  ****    0 ROOT
