@<TRIPOS>MOLECULE
1UZ
   28    30     1     0     0
SMALL
No Charge or Current Charge


@<TRIPOS>ATOM
      1 CAC         -0.7710     1.6220    -0.0010 cc         1 1UZ      -0.379200
      2 CAB         -2.2260     1.7390     0.0050 c          1 1UZ       0.595900
      3 OAA         -2.7920     2.8240    -0.0010 o          1 1UZ      -0.536100
      4 CAK         -2.9690     0.4460     0.0200 ca         1 1UZ      -0.226600
      5 CAJ         -4.3800     0.4060     0.0280 ca         1 1UZ      -0.024000
      6 CAI         -5.0470    -0.8320     0.0410 ca         1 1UZ      -0.145000
      7 CAH         -4.3130    -2.0300     0.0480 ca         1 1UZ      -0.056000
      8 CAG         -2.9090    -1.9880     0.0400 ca         1 1UZ      -0.141000
      9 CAF         -2.2410    -0.7530     0.0270 ca         1 1UZ       0.151100
     10 OAE         -0.8670    -0.7400     0.0200 os         1 1UZ      -0.216200
     11 CAD         -0.1160     0.4080     0.0060 cd         1 1UZ       0.197900
     12 CAL          1.3530     0.1870     0.0000 ca         1 1UZ      -0.048800
     13 CAM          1.8870    -1.1250     0.0090 ca         1 1UZ      -0.079500
     14 CAN          3.2770    -1.3400     0.0030 ca         1 1UZ      -0.079000
     15 CAO          4.1640    -0.2490    -0.0110 ca         1 1UZ       0.004000
     16 CAR          5.5850    -0.4690    -0.0170 cg         1 1UZ       0.317000
     17 NAS          6.7400    -0.6410    -0.0140 n1         1 1UZ      -0.438000
     18 CAP          3.6470     1.0580    -0.0200 ca         1 1UZ      -0.079000
     19 CAQ          2.2580     1.2740    -0.0140 ca         1 1UZ      -0.079500
     20 H1          -0.2500     2.5690    -0.0120 ha         1 1UZ       0.215000
     21 H2          -4.9600     1.3270     0.0230 ha         1 1UZ       0.139000
     22 H3          -6.1340    -0.8620     0.0470 ha         1 1UZ       0.124000
     23 H4          -4.8300    -2.9880     0.0590 ha         1 1UZ       0.121000
     24 H5          -2.3360    -2.9120     0.0450 ha         1 1UZ       0.133000
     25 H6           1.2330    -1.9930     0.0200 ha         1 1UZ       0.132500
     26 H7           3.6620    -2.3580     0.0100 ha         1 1UZ       0.132500
     27 H8           4.3220     1.9120    -0.0310 ha         1 1UZ       0.132500
     28 H9           1.9000     2.2990    -0.0210 ha         1 1UZ       0.132500
@<TRIPOS>BOND
     1     1     2 1   
     2     1    11 2   
     3     1    20 1   
     4     2     3 2   
     5     2     4 1   
     6     4     5 ar  
     7     4     9 ar  
     8     5     6 ar  
     9     5    21 1   
    10     6     7 ar  
    11     6    22 1   
    12     7     8 ar  
    13     7    23 1   
    14     8     9 ar  
    15     8    24 1   
    16     9    10 1   
    17    10    11 1   
    18    11    12 1   
    19    12    13 ar  
    20    12    19 ar  
    21    13    14 ar  
    22    13    25 1   
    23    14    15 ar  
    24    14    26 1   
    25    15    16 1   
    26    15    18 ar  
    27    16    17 3   
    28    18    19 ar  
    29    18    27 1   
    30    19    28 1   
@<TRIPOS>SUBSTRUCTURE
     1 1UZ         1 TEMP              0 ****  ****    0 ROOT
