@<TRIPOS>MOLECULE
1UZ
   28    30     1     0     0
SMALL
abcg2


@<TRIPOS>ATOM
      1 CAC         -0.7400     1.5820    -0.2190 cc         1 1UZ      -0.379200
      2 CAB         -2.1810     1.7190    -0.2340 c          1 1UZ       0.595900
      3 OAA         -2.7500     2.7900    -0.3890 o          1 1UZ      -0.536100
      4 CAK         -2.9060     0.4540    -0.0580 ca         1 1UZ      -0.226600
      5 CAJ         -4.3030     0.3970    -0.0600 ca         1 1UZ      -0.024000
      6 CAI         -4.9540    -0.8060     0.1060 ca         1 1UZ      -0.145000
      7 CAH         -4.2150    -1.9810     0.2770 ca         1 1UZ      -0.056000
      8 CAG         -2.8350    -1.9520     0.2820 ca         1 1UZ      -0.141000
      9 CAF         -2.1930    -0.7290     0.1130 ca         1 1UZ       0.151100
     10 OAE         -0.8400    -0.7450     0.1310 os         1 1UZ      -0.216200
     11 CAD         -0.1450     0.3850    -0.0340 cd         1 1UZ       0.197900
     12 CAL          1.3070     0.1610    -0.0110 ca         1 1UZ      -0.048800
     13 CAM          1.8370    -1.0870    -0.3410 ca         1 1UZ      -0.079500
     14 CAN          3.2050    -1.2870    -0.3400 ca         1 1UZ      -0.079000
     15 CAO          4.0560    -0.2380     0.0020 ca         1 1UZ       0.004000
     16 CAR          5.4690    -0.4430     0.0070 cg         1 1UZ       0.317000
     17 NAS          6.6090    -0.6090     0.0090 n1         1 1UZ      -0.438000
     18 CAP          3.5360     1.0090     0.3440 ca         1 1UZ      -0.079000
     19 CAQ          2.1690     1.2020     0.3380 ca         1 1UZ      -0.079500
     20 H1          -0.1340     2.4630    -0.3770 ha         1 1UZ       0.215000
     21 H2          -4.8660     1.3110    -0.1960 ha         1 1UZ       0.139000
     22 H3          -6.0340    -0.8450     0.1040 ha         1 1UZ       0.124000
     23 H4          -4.7260    -2.9250     0.4100 ha         1 1UZ       0.121000
     24 H5          -2.2560    -2.8560     0.4170 ha         1 1UZ       0.133000
     25 H6           1.1930    -1.9100    -0.6160 ha         1 1UZ       0.132500
     26 H7           3.6100    -2.2530    -0.6070 ha         1 1UZ       0.132500
     27 H8           4.1960     1.8190     0.6220 ha         1 1UZ       0.132500
     28 H9           1.7780     2.1670     0.6290 ha         1 1UZ       0.132500
@<TRIPOS>BOND
     1     1     2 1   
     2     1    11 2   
     3     1    20 1   
     4     2     3 2   
     5     2     4 1   
     6     4     5 ar  
     7     4     9 ar  
     8     5     6 ar  
     9     5    21 1   
    10     6     7 ar  
    11     6    22 1   
    12     7     8 ar  
    13     7    23 1   
    14     8     9 ar  
    15     8    24 1   
    16     9    10 1   
    17    10    11 1   
    18    11    12 1   
    19    12    13 ar  
    20    12    19 ar  
    21    13    14 ar  
    22    13    25 1   
    23    14    15 ar  
    24    14    26 1   
    25    15    16 1   
    26    15    18 ar  
    27    16    17 3   
    28    18    19 ar  
    29    18    27 1   
    30    19    28 1   
@<TRIPOS>SUBSTRUCTURE
     1 1UZ         1 TEMP              0 ****  ****    0 ROOT
