@<TRIPOS>MOLECULE
1V0
   29    31     1     0     0
SMALL
No Charge or Current Charge


@<TRIPOS>ATOM
      1 CAC         -1.2130     1.6520     0.0390 cc         1 1V0      -0.368200
      2 CAE         -2.6700     1.7540     0.0480 c          1 1V0       0.594900
      3 OAL         -3.2480     2.8320     0.0740 o          1 1V0      -0.531100
      4 CAF         -3.3990     0.4530     0.0230 ca         1 1V0      -0.226600
      5 CAQ         -4.8100     0.3980     0.0280 ca         1 1V0      -0.024000
      6 CAS         -5.4640    -0.8470     0.0040 ca         1 1V0      -0.143000
      7 CAT         -4.7170    -2.0370    -0.0250 ca         1 1V0      -0.054000
      8 CAR         -3.3130    -1.9800    -0.0300 ca         1 1V0      -0.139000
      9 CAG         -2.6590    -0.7380    -0.0060 ca         1 1V0       0.150100
     10 OAD         -1.2850    -0.7110    -0.0120 os         1 1V0      -0.216200
     11 CAA         -0.5460     0.4450     0.0100 cd         1 1V0       0.187900
     12 CAI          0.9260     0.2390    -0.0010 ca         1 1V0      -0.023800
     13 CAO          1.4740    -1.0650    -0.0320 ca         1 1V0      -0.089500
     14 CAM          2.8650    -1.2690    -0.0420 ca         1 1V0      -0.051500
     15 CAH          3.7510    -0.1690    -0.0230 ca         1 1V0      -0.163200
     16 NAB          5.2360    -0.3830    -0.0340 no         1 1V0       0.693200
     17 OAK          5.9710     0.6130    -0.0160 o          1 1V0      -0.392500
     18 OAJ          5.6600    -1.5460    -0.0610 o          1 1V0      -0.392500
     19 CAN          3.2120     1.1360     0.0080 ca         1 1V0      -0.051500
     20 CAP          1.8200     1.3340     0.0180 ca         1 1V0      -0.089500
     21 H1          -0.7030     2.6050     0.0570 ha         1 1V0       0.215000
     22 H2          -5.4000     1.3130     0.0500 ha         1 1V0       0.140000
     23 H3          -6.5510    -0.8880     0.0080 ha         1 1V0       0.125000
     24 H4          -5.2250    -3.0000    -0.0440 ha         1 1V0       0.122000
     25 H5          -2.7310    -2.8980    -0.0530 ha         1 1V0       0.134000
     26 H6           0.8280    -1.9390    -0.0480 ha         1 1V0       0.139500
     27 H7           3.2450    -2.2900    -0.0660 ha         1 1V0       0.156500
     28 H8           3.8650     2.0080     0.0240 ha         1 1V0       0.156500
     29 H9           1.4510     2.3540     0.0420 ha         1 1V0       0.139500
@<TRIPOS>BOND
     1     1     2 1   
     2     1    11 2   
     3     1    21 1   
     4     2     3 2   
     5     2     4 1   
     6     4     5 ar  
     7     4     9 ar  
     8     5     6 ar  
     9     5    22 1   
    10     6     7 ar  
    11     6    23 1   
    12     7     8 ar  
    13     7    24 1   
    14     8     9 ar  
    15     8    25 1   
    16     9    10 1   
    17    10    11 1   
    18    11    12 1   
    19    12    13 ar  
    20    12    20 ar  
    21    13    14 ar  
    22    13    26 1   
    23    14    15 ar  
    24    14    27 1   
    25    15    16 1   
    26    15    19 ar  
    27    16    17 1   
    28    16    18 1   
    29    19    20 ar  
    30    19    28 1   
    31    20    29 1   
@<TRIPOS>SUBSTRUCTURE
     1 1V0         1 TEMP              0 ****  ****    0 ROOT
