@<TRIPOS>MOLECULE
1V0
   29    31     1     0     0
SMALL
bcc


@<TRIPOS>ATOM
      1 CAC         -1.1650     1.6040     0.2680 cc         1 1V0      -0.318200
      2 CAE         -2.6070     1.7270     0.3060 c          1 1V0       0.594900
      3 OAL         -3.1830     2.7890     0.4920 o          1 1V0      -0.531100
      4 CAF         -3.3230     0.4600     0.1090 ca         1 1V0      -0.226600
      5 CAQ         -4.7200     0.3900     0.1280 ca         1 1V0      -0.042000
      6 CAS         -5.3620    -0.8150    -0.0590 ca         1 1V0      -0.161000
      7 CAT         -4.6140    -1.9780    -0.2690 ca         1 1V0      -0.072000
      8 CAR         -3.2360    -1.9370    -0.2900 ca         1 1V0      -0.157000
      9 CAG         -2.6020    -0.7130    -0.0990 ca         1 1V0       0.150100
     10 OAD         -1.2490    -0.7160    -0.1320 os         1 1V0      -0.216200
     11 CAA         -0.5630     0.4160     0.0500 cd         1 1V0       0.187900
     12 CAI          0.8910     0.2080     0.0080 ca         1 1V0      -0.023800
     13 CAO          1.4380    -1.0360     0.3230 ca         1 1V0      -0.107500
     14 CAM          2.8080    -1.2240     0.3080 ca         1 1V0      -0.069500
     15 CAH          3.6280    -0.1600    -0.0360 ca         1 1V0      -0.163200
     16 NAB          5.0720    -0.3540    -0.0540 no         1 1V0       0.313200
     17 OAK          5.7660     0.5950    -0.3310 o          1 1V0      -0.202500
     18 OAJ          5.4990    -1.4520     0.2090 o          1 1V0      -0.202500
     19 CAN          3.1080     1.0830    -0.3650 ca         1 1V0      -0.069500
     20 CAP          1.7380     1.2580    -0.3420 ca         1 1V0      -0.107500
     21 H1          -0.5640     2.4860     0.4400 ha         1 1V0       0.165000
     22 H2          -5.2880     1.2950     0.2920 ha         1 1V0       0.158000
     23 H3          -6.4420    -0.8630    -0.0440 ha         1 1V0       0.143000
     24 H4          -5.1190    -2.9230    -0.4170 ha         1 1V0       0.140000
     25 H5          -2.6500    -2.8320    -0.4550 ha         1 1V0       0.152000
     26 H6           0.8070    -1.8690     0.6000 ha         1 1V0       0.157500
     27 H7           3.2170    -2.1890     0.5670 ha         1 1V0       0.174500
     28 H8           3.7480     1.9070    -0.6440 ha         1 1V0       0.174500
     29 H9           1.3350     2.2210    -0.6230 ha         1 1V0       0.157500
@<TRIPOS>BOND
     1     1     2 1   
     2     1    11 2   
     3     1    21 1   
     4     2     3 2   
     5     2     4 1   
     6     4     5 ar  
     7     4     9 ar  
     8     5     6 ar  
     9     5    22 1   
    10     6     7 ar  
    11     6    23 1   
    12     7     8 ar  
    13     7    24 1   
    14     8     9 ar  
    15     8    25 1   
    16     9    10 1   
    17    10    11 1   
    18    11    12 1   
    19    12    13 ar  
    20    12    20 ar  
    21    13    14 ar  
    22    13    26 1   
    23    14    15 ar  
    24    14    27 1   
    25    15    16 1   
    26    15    19 ar  
    27    16    17 1   
    28    16    18 1   
    29    19    20 ar  
    30    19    28 1   
    31    20    29 1   
@<TRIPOS>SUBSTRUCTURE
     1 1V0         1 TEMP              0 ****  ****    0 ROOT
