@<TRIPOS>MOLECULE
1V1
   27    29     1     0     0
SMALL
bcc


@<TRIPOS>ATOM
      1 CAB         -0.9270     1.6010    -0.0190 cc         1 1V1      -0.336200
      2 CAD         -2.3670     1.7250    -0.0160 c          1 1V1       0.596900
      3 OAH         -2.9460     2.8030    -0.0190 o          1 1V1      -0.540100
      4 CAE         -3.0830     0.4430    -0.0090 ca         1 1V1      -0.226600
      5 CAO         -4.4800     0.3740    -0.0050 ca         1 1V1      -0.042000
      6 CAQ         -5.1190    -0.8470     0.0030 ca         1 1V1      -0.164000
      7 CAR         -4.3680    -2.0260     0.0050 ca         1 1V1      -0.075000
      8 CAP         -2.9890    -1.9850     0.0010 ca         1 1V1      -0.160000
      9 CAF         -2.3590    -0.7440    -0.0070 ca         1 1V1       0.154100
     10 OAC         -1.0070    -0.7480    -0.0110 os         1 1V1      -0.221200
     11 CAA         -0.3130     0.3960    -0.0160 cd         1 1V1       0.210900
     12 CAG          1.1380     0.1700    -0.0190 ca         1 1V1      -0.070800
     13 CAI          1.6600    -1.1250    -0.0350 ca         1 1V1      -0.083500
     14 CAM          3.0280    -1.3410    -0.0390 ca         1 1V1      -0.129500
     15 CAK          3.8880    -0.2550    -0.0280 ca         1 1V1       0.045400
     16 CL1          5.5950    -0.5150    -0.0300 cl         1 1V1      -0.097400
     17 CAL          3.3950     1.0420    -0.0110 ca         1 1V1      -0.129500
     18 CAJ          2.0280     1.2470    -0.0070 ca         1 1V1      -0.083500
     19 H1          -0.3420     2.5080    -0.0240 ha         1 1V1       0.163000
     20 H2          -5.0520     1.2920    -0.0060 ha         1 1V1       0.157000
     21 H3          -6.1990    -0.8960     0.0070 ha         1 1V1       0.141000
     22 H4          -4.8690    -2.9850     0.0100 ha         1 1V1       0.138000
     23 H5          -2.4000    -2.8930     0.0040 ha         1 1V1       0.151000
     24 H6           1.0100    -1.9880    -0.0450 ha         1 1V1       0.148000
     25 H7           3.4150    -2.3510    -0.0520 ha         1 1V1       0.152500
     26 H8           4.0690     1.8870    -0.0010 ha         1 1V1       0.152500
     27 H9           1.6700     2.2660     0.0080 ha         1 1V1       0.148000
@<TRIPOS>BOND
     1     1     2 1   
     2     1    11 2   
     3     1    19 1   
     4     2     3 2   
     5     2     4 1   
     6     4     5 ar  
     7     4     9 ar  
     8     5     6 ar  
     9     5    20 1   
    10     6     7 ar  
    11     6    21 1   
    12     7     8 ar  
    13     7    22 1   
    14     8     9 ar  
    15     8    23 1   
    16     9    10 1   
    17    10    11 1   
    18    11    12 1   
    19    12    13 ar  
    20    12    18 ar  
    21    13    14 ar  
    22    13    24 1   
    23    14    15 ar  
    24    14    25 1   
    25    15    16 1   
    26    15    17 ar  
    27    17    18 ar  
    28    17    26 1   
    29    18    27 1   
@<TRIPOS>SUBSTRUCTURE
     1 1V1         1 TEMP              0 ****  ****    0 ROOT
