@<TRIPOS>MOLECULE
1V1
   27    29     1     0     0
SMALL
No Charge or Current Charge


@<TRIPOS>ATOM
      1 CAB         -0.9370     1.6090    -0.0100 cc         1 1V1      -0.386200
      2 CAD         -2.3920     1.7230    -0.0050 c          1 1V1       0.596900
      3 OAH         -2.9610     2.8050    -0.0020 o          1 1V1      -0.540100
      4 CAE         -3.1320     0.4280    -0.0050 ca         1 1V1      -0.226600
      5 CAO         -4.5430     0.3840    -0.0010 ca         1 1V1      -0.024000
      6 CAQ         -5.2070    -0.8560    -0.0000 ca         1 1V1      -0.146000
      7 CAR         -4.4710    -2.0520    -0.0040 ca         1 1V1      -0.057000
      8 CAP         -3.0660    -2.0060    -0.0090 ca         1 1V1      -0.142000
      9 CAF         -2.4010    -0.7700    -0.0090 ca         1 1V1       0.154100
     10 OAC         -1.0280    -0.7530    -0.0130 os         1 1V1      -0.221200
     11 CAA         -0.2800     0.3970    -0.0140 cd         1 1V1       0.210900
     12 CAG          1.1890     0.1790    -0.0190 ca         1 1V1      -0.070800
     13 CAI          1.7260    -1.1320    -0.0220 ca         1 1V1      -0.065500
     14 CAM          3.1170    -1.3420    -0.0270 ca         1 1V1      -0.111500
     15 CAK          3.9930    -0.2480    -0.0280 ca         1 1V1       0.137000
     16 Cl1          5.7320    -0.5130    -0.0340 cl         1 1V1      -0.189000
     17 CAL          3.4810     1.0560    -0.0250 ca         1 1V1      -0.111500
     18 CAJ          2.0910     1.2710    -0.0200 ca         1 1V1      -0.065500
     19 H1          -0.4190     2.5570    -0.0100 ha         1 1V1       0.213000
     20 H2          -5.1260     1.3040     0.0030 ha         1 1V1       0.139000
     21 H3          -6.2950    -0.8880     0.0030 ha         1 1V1       0.123000
     22 H4          -4.9860    -3.0110    -0.0040 ha         1 1V1       0.120000
     23 H5          -2.4910    -2.9290    -0.0120 ha         1 1V1       0.133000
     24 H6           1.0740    -2.0020    -0.0210 ha         1 1V1       0.130000
     25 H7           3.5140    -2.3540    -0.0300 ha         1 1V1       0.134500
     26 H8           4.1620     1.9040    -0.0260 ha         1 1V1       0.134500
     27 H9           1.7320     2.2950    -0.0180 ha         1 1V1       0.130000
@<TRIPOS>BOND
     1     1     2 1   
     2     1    11 2   
     3     1    19 1   
     4     2     3 2   
     5     2     4 1   
     6     4     5 ar  
     7     4     9 ar  
     8     5     6 ar  
     9     5    20 1   
    10     6     7 ar  
    11     6    21 1   
    12     7     8 ar  
    13     7    22 1   
    14     8     9 ar  
    15     8    23 1   
    16     9    10 1   
    17    10    11 1   
    18    11    12 1   
    19    12    13 ar  
    20    12    18 ar  
    21    13    14 ar  
    22    13    24 1   
    23    14    15 ar  
    24    14    25 1   
    25    15    16 1   
    26    15    17 ar  
    27    17    18 ar  
    28    17    26 1   
    29    18    27 1   
@<TRIPOS>SUBSTRUCTURE
     1 1V1         1 TEMP              0 ****  ****    0 ROOT
