@<TRIPOS>MOLECULE
1V2
   56    59     1     0     0
SMALL
abcg2


@<TRIPOS>ATOM
      1 C13         -5.9190     0.7700    -0.0930 ca         1 1V2      -0.064000
      2 C14         -7.2640     1.0810    -0.2120 ca         1 1V2       0.111000
      3 CL1         -7.7250     2.7190    -0.4810 cl         1 1V2      -0.174000
      4 C15         -8.2260     0.0840    -0.1150 ca         1 1V2       0.121000
      5 CL2         -9.9000     0.4520    -0.2690 cl         1 1V2      -0.172000
      6 C16         -7.8270    -1.2280     0.1060 ca         1 1V2      -0.103000
      7 C17         -6.4860    -1.5360     0.2280 ca         1 1V2      -0.090000
      8 C12         -5.5110    -0.5430     0.1290 ca         1 1V2      -0.107500
      9 C11         -4.0810    -0.8480     0.2510 cc         1 1V2       0.383500
     10 N3          -3.1740     0.1720     0.1360 nc         1 1V2      -0.733000
     11 C10         -3.5470    -2.0790     0.4660 cd         1 1V2      -0.282000
     12 S1          -1.8290    -1.9760     0.5370 ss         1 1V2      -0.059400
     13 C9          -1.9580    -0.2580     0.2650 cd         1 1V2       0.715300
     14 N1          -0.8880     0.5720     0.2390 nu         1 1V2      -0.937900
     15 C1           0.4600     0.2230     0.3800 ca         1 1V2       0.291000
     16 C3           1.0140    -0.8750    -0.2750 ca         1 1V2      -0.143000
     17 C5           2.3560    -1.1810    -0.1020 ca         1 1V2      -0.080000
     18 C2           1.2830     1.0240     1.1690 ca         1 1V2      -0.143000
     19 C4           2.6270     0.7230     1.3070 ca         1 1V2      -0.080000
     20 C6           3.1870    -0.3930     0.6870 ca         1 1V2      -0.094300
     21 C7           4.6530    -0.6960     0.8160 c3         1 1V2      -0.032100
     22 C8           5.4480     0.0370    -0.2690 c3         1 1V2       0.173800
     23 N2           6.8870    -0.0510    -0.0970 n3         1 1V2      -0.708600
     24 C22          7.3590    -1.4210    -0.2300 c6         1 1V2       0.169800
     25 C21          8.8310    -1.5500     0.1230 c6         1 1V2      -0.115400
     26 C20          9.6680    -0.6390    -0.7550 c6         1 1V2       0.171300
     27 O2          11.0330    -0.6240    -0.3880 oh         1 1V2      -0.655000
     28 C19          9.1280     0.7730    -0.6500 c6         1 1V2      -0.072400
     29 C18          7.6380     0.8290    -0.9930 c6         1 1V2       0.193500
     30 C23          7.1600     2.2730    -0.9870 c3         1 1V2       0.163600
     31 O1           7.1890     2.7890     0.3230 oh         1 1V2      -0.641000
     32 H1          -5.1830     1.5580    -0.1720 ha         1 1V2       0.153000
     33 H2          -8.5720    -2.0070     0.1820 ha         1 1V2       0.131000
     34 H3          -6.2100    -2.5670     0.4020 ha         1 1V2       0.120000
     35 H4          -4.0400    -3.0320     0.5690 h4         1 1V2       0.161000
     36 H5          -1.1210     1.5490     0.3360 hn         1 1V2       0.511000
     37 H6           0.4180    -1.4810    -0.9450 ha         1 1V2       0.123000
     38 H7           2.7630    -2.0460    -0.6120 ha         1 1V2       0.119000
     39 H8           0.8660     1.8830     1.6810 ha         1 1V2       0.123000
     40 H9           3.2490     1.3610     1.9230 ha         1 1V2       0.119000
     41 H10          5.0220    -0.3770     1.7950 hc         1 1V2       0.057200
     42 H11          4.8000    -1.7750     0.7560 hc         1 1V2       0.057200
     43 H12          5.1240    -0.3290    -1.2600 h1         1 1V2       0.033700
     44 H13          5.1510     1.0840    -0.2150 h1         1 1V2       0.033700
     45 H15          6.7900    -2.0690     0.4360 h1         1 1V2       0.029700
     46 H16          7.1880    -1.8010    -1.2540 h1         1 1V2       0.029700
     47 H17          8.9780    -1.2780     1.1730 hc         1 1V2       0.054200
     48 H18          9.1370    -2.5940     0.0070 hc         1 1V2       0.054200
     49 H19          9.5580    -0.9720    -1.8000 h1         1 1V2       0.020700
     50 H20         11.3720    -1.5200    -0.4670 ho         1 1V2       0.441000
     51 H21          9.2830     1.1450     0.3670 hc         1 1V2       0.066700
     52 H22          9.6720     1.4340    -1.3310 hc         1 1V2       0.066700
     53 H23          7.5230     0.4930    -2.0420 h1         1 1V2       0.017700
     54 H24          7.8270     2.8280    -1.6600 h1         1 1V2       0.018200
     55 H25          6.1580     2.3490    -1.4270 h1         1 1V2       0.018200
     56 H26          6.9600     3.7210     0.2800 ho         1 1V2       0.437000
@<TRIPOS>BOND
     1     1     2 ar  
     2     1     8 ar  
     3     1    32 1   
     4     2     3 1   
     5     2     4 ar  
     6     4     5 1   
     7     4     6 ar  
     8     6     7 ar  
     9     6    33 1   
    10     7     8 ar  
    11     7    34 1   
    12     8     9 1   
    13     9    10 1   
    14     9    11 2   
    15    10    13 2   
    16    11    12 1   
    17    11    35 1   
    18    12    13 1   
    19    13    14 1   
    20    14    15 1   
    21    14    36 1   
    22    15    16 ar  
    23    15    18 ar  
    24    16    17 ar  
    25    16    37 1   
    26    17    20 ar  
    27    17    38 1   
    28    18    19 ar  
    29    18    39 1   
    30    19    20 ar  
    31    19    40 1   
    32    20    21 1   
    33    21    22 1   
    34    21    41 1   
    35    21    42 1   
    36    22    23 1   
    37    22    43 1   
    38    22    44 1   
    39    23    24 1   
    40    23    29 1   
    41    24    25 1   
    42    24    45 1   
    43    24    46 1   
    44    25    26 1   
    45    25    47 1   
    46    25    48 1   
    47    26    27 1   
    48    26    28 1   
    49    26    49 1   
    50    27    50 1   
    51    28    29 1   
    52    28    51 1   
    53    28    52 1   
    54    29    30 1   
    55    29    53 1   
    56    30    31 1   
    57    30    54 1   
    58    30    55 1   
    59    31    56 1   
@<TRIPOS>SUBSTRUCTURE
     1 1V2         1 TEMP              0 ****  ****    0 ROOT
