@<TRIPOS>MOLECULE
1V2
   56    59     1     0     0
SMALL
No Charge or Current Charge


@<TRIPOS>ATOM
      1 C13         -5.8840     0.9270    -0.2120 ca         1 1V2      -0.064000
      2 C14         -7.2170     1.3700    -0.2620 ca         1 1V2       0.111000
      3 Cl1         -7.5400     3.0860    -0.5130 cl         1 1V2      -0.174000
      4 C15         -8.2700     0.4470    -0.1090 ca         1 1V2       0.121000
      5 Cl2         -9.9560     0.9670    -0.1620 cl         1 1V2      -0.172000
      6 C16         -7.9800    -0.9100     0.1010 ca         1 1V2      -0.103000
      7 C17         -6.6460    -1.3520     0.1500 ca         1 1V2      -0.090000
      8 C12         -5.5780    -0.4410    -0.0260 ca         1 1V2      -0.107500
      9 C11         -4.1730    -0.8740     0.0590 cc         1 1V2       0.383500
     10 N3          -3.1550    -0.0060     0.3570 nc         1 1V2      -0.733000
     11 C10         -3.8350    -2.1830    -0.1970 cd         1 1V2      -0.282000
     12 S1          -2.1010    -2.3950    -0.0250 ss         1 1V2      -0.059400
     13 C9          -2.0270    -0.6660     0.3210 cd         1 1V2       0.715300
     14 N1          -0.9480     0.0600     0.6750 nu         1 1V2      -0.937900
     15 C1           0.4250    -0.1740     0.7320 ca         1 1V2       0.291000
     16 C3           1.0510    -1.1900    -0.0140 ca         1 1V2      -0.143000
     17 C5           2.4420    -1.3810     0.0690 ca         1 1V2      -0.080000
     18 C2           1.2120     0.6610     1.5410 ca         1 1V2      -0.143000
     19 C4           2.6030     0.4730     1.6290 ca         1 1V2      -0.080000
     20 C6           3.2240    -0.5550     0.8960 ca         1 1V2      -0.094300
     21 C7           4.7320    -0.7590     0.9800 c3         1 1V2      -0.032100
     22 C8           5.4760    -0.0370    -0.1690 c3         1 1V2       0.173800
     23 N2           6.9640     0.0060    -0.0490 n3         1 1V2      -0.708600
     24 C22          7.5700    -1.3600     0.0040 c6         1 1V2       0.169800
     25 C21          9.0950    -1.3160     0.2380 c6         1 1V2      -0.115400
     26 C20          9.7840    -0.4860    -0.8580 c6         1 1V2       0.171300
     27 O2          11.1890    -0.3970    -0.6020 oh         1 1V2      -0.655000
     28 C19          9.1610     0.9210    -0.9040 c6         1 1V2      -0.072400
     29 C18          7.6210     0.8550    -1.1140 c6         1 1V2       0.193500
     30 C23          7.0560     2.3220    -1.2640 c3         1 1V2       0.163600
     31 O1           7.1410     3.1110    -0.0620 oh         1 1V2      -0.641000
     32 H1          -5.0860     1.6560    -0.3290 ha         1 1V2       0.153000
     33 H2          -8.7920    -1.6210     0.2330 ha         1 1V2       0.131000
     34 H3          -6.4560    -2.4060     0.3370 ha         1 1V2       0.120000
     35 H4          -4.4710    -3.0120    -0.4750 h4         1 1V2       0.161000
     36 H5          -1.2590     0.9590     1.0260 hn         1 1V2       0.511000
     37 H6           0.4780    -1.8230    -0.6810 ha         1 1V2       0.123000
     38 H7           2.9110    -2.1700    -0.5160 ha         1 1V2       0.119000
     39 H8           0.7460     1.4580     2.1150 ha         1 1V2       0.123000
     40 H9           3.1950     1.1270     2.2650 ha         1 1V2       0.119000
     41 H10          5.1120    -0.3870     1.9390 hc         1 1V2       0.057200
     42 H11          4.9530    -1.8320     0.9520 hc         1 1V2       0.057200
     43 H12          5.1890    -0.5050    -1.1200 h1         1 1V2       0.033700
     44 H13          5.0790     0.9860    -0.1830 h1         1 1V2       0.033700
     45 H15          7.1330    -1.9510     0.8200 h1         1 1V2       0.029700
     46 H16          7.3660    -1.9010    -0.9320 h1         1 1V2       0.029700
     47 H17          9.3010    -0.8860     1.2280 hc         1 1V2       0.054200
     48 H18          9.4930    -2.3390     0.2470 hc         1 1V2       0.054200
     49 H19          9.6150    -0.9750    -1.8290 h1         1 1V2       0.020700
     50 H20         11.5390    -1.3140    -0.6330 ho         1 1V2       0.441000
     51 H21          9.3850     1.4560     0.0290 hc         1 1V2       0.066700
     52 H22          9.6240     1.4980    -1.7160 hc         1 1V2       0.066700
     53 H23          7.4520     0.3710    -2.0870 h1         1 1V2       0.017700
     54 H24          7.6160     2.8170    -2.0680 h1         1 1V2       0.018200
     55 H25          6.0150     2.2680    -1.6050 h1         1 1V2       0.018200
     56 H26          6.7280     3.9790    -0.2610 ho         1 1V2       0.437000
@<TRIPOS>BOND
     1     1     2 ar  
     2     1     8 ar  
     3     1    32 1   
     4     2     3 1   
     5     2     4 ar  
     6     4     5 1   
     7     4     6 ar  
     8     6     7 ar  
     9     6    33 1   
    10     7     8 ar  
    11     7    34 1   
    12     8     9 1   
    13     9    10 1   
    14     9    11 2   
    15    10    13 2   
    16    11    12 1   
    17    11    35 1   
    18    12    13 1   
    19    13    14 1   
    20    14    15 1   
    21    14    36 1   
    22    15    16 ar  
    23    15    18 ar  
    24    16    17 ar  
    25    16    37 1   
    26    17    20 ar  
    27    17    38 1   
    28    18    19 ar  
    29    18    39 1   
    30    19    20 ar  
    31    19    40 1   
    32    20    21 1   
    33    21    22 1   
    34    21    41 1   
    35    21    42 1   
    36    22    23 1   
    37    22    43 1   
    38    22    44 1   
    39    23    24 1   
    40    23    29 1   
    41    24    25 1   
    42    24    45 1   
    43    24    46 1   
    44    25    26 1   
    45    25    47 1   
    46    25    48 1   
    47    26    27 1   
    48    26    28 1   
    49    26    49 1   
    50    27    50 1   
    51    28    29 1   
    52    28    51 1   
    53    28    52 1   
    54    29    30 1   
    55    29    53 1   
    56    30    31 1   
    57    30    54 1   
    58    30    55 1   
    59    31    56 1   
@<TRIPOS>SUBSTRUCTURE
     1 1V2         1 TEMP              0 ****  ****    0 ROOT
