@<TRIPOS>MOLECULE
1V3
   27    29     1     0     0
SMALL
bcc


@<TRIPOS>ATOM
      1 CAB          0.9040     1.6030    -0.2150 cc         1 1V3      -0.339200
      2 CAD         -0.5170     1.8560    -0.2250 c          1 1V3       0.596900
      3 OAI         -1.0070     2.9680    -0.3650 o          1 1V3      -0.536100
      4 CAC         -1.3410     0.6480    -0.0640 ca         1 1V3      -0.221600
      5 CAG         -2.7360     0.7120    -0.0810 ca         1 1V3      -0.036000
      6 CAK         -3.4680    -0.4430     0.0670 ca         1 1V3      -0.012600
      7 CL1         -5.1970    -0.3740     0.0480 cl         1 1V3      -0.097400
      8 CAL         -2.8410    -1.6800     0.2350 ca         1 1V3      -0.070000
      9 CAJ         -1.4660    -1.7540     0.2520 ca         1 1V3      -0.151000
     10 CAF         -0.7230    -0.5860     0.1010 ca         1 1V3       0.153100
     11 OAE          0.6210    -0.7090     0.1280 os         1 1V3      -0.213200
     12 CAA          1.4080     0.3610    -0.0350 cd         1 1V3       0.210900
     13 CAH          2.8360     0.0210    -0.0120 ca         1 1V3      -0.076800
     14 CAN          3.2650    -1.2730    -0.3160 ca         1 1V3      -0.089500
     15 CAP          4.6180    -1.5760    -0.3140 ca         1 1V3      -0.134500
     16 CAR          5.5550    -0.6000    -0.0020 ca         1 1V3      -0.104000
     17 CAQ          5.1330     0.6860     0.3120 ca         1 1V3      -0.134500
     18 CAO          3.7830     0.9950     0.3080 ca         1 1V3      -0.089500
     19 H1           1.5770     2.4340    -0.3700 ha         1 1V3       0.166000
     20 H2          -3.2220     1.6690    -0.2120 ha         1 1V3       0.172000
     21 H3          -3.4300    -2.5790     0.3520 ha         1 1V3       0.153000
     22 H4          -0.9680    -2.7060     0.3820 ha         1 1V3       0.156000
     23 H5           2.5540    -2.0460    -0.5700 ha         1 1V3       0.143000
     24 H6           4.9390    -2.5790    -0.5610 ha         1 1V3       0.137500
     25 H7           6.6090    -0.8410     0.0010 ha         1 1V3       0.136000
     26 H8           5.8560     1.4490     0.5680 ha         1 1V3       0.137500
     27 H9           3.4700     1.9950     0.5790 ha         1 1V3       0.143000
@<TRIPOS>BOND
     1     1     2 1   
     2     1    12 2   
     3     1    19 1   
     4     2     3 2   
     5     2     4 1   
     6     4     5 ar  
     7     4    10 ar  
     8     5     6 ar  
     9     5    20 1   
    10     6     7 1   
    11     6     8 ar  
    12     8     9 ar  
    13     8    21 1   
    14     9    10 ar  
    15     9    22 1   
    16    10    11 1   
    17    11    12 1   
    18    12    13 1   
    19    13    14 ar  
    20    13    18 ar  
    21    14    15 ar  
    22    14    23 1   
    23    15    16 ar  
    24    15    24 1   
    25    16    17 ar  
    26    16    25 1   
    27    17    18 ar  
    28    17    26 1   
    29    18    27 1   
@<TRIPOS>SUBSTRUCTURE
     1 1V3         1 TEMP              0 ****  ****    0 ROOT
