@<TRIPOS>MOLECULE
1V3
   27    29     1     0     0
SMALL
No Charge or Current Charge


@<TRIPOS>ATOM
      1 CAB          0.8900     1.6400    -0.0040 cc         1 1V3      -0.389200
      2 CAD         -0.5510     1.8740     0.0010 c          1 1V3       0.596900
      3 OAI         -1.0290     2.9990     0.0000 o          1 1V3      -0.536100
      4 CAC         -1.3950     0.6450     0.0070 ca         1 1V3      -0.221600
      5 CAG         -2.8050     0.7180     0.0120 ca         1 1V3      -0.018000
      6 CAK         -3.5710    -0.4610     0.0180 ca         1 1V3       0.079000
      7 Cl1         -5.3280    -0.3670     0.0250 cl         1 1V3      -0.189000
      8 CAL         -2.9370    -1.7140     0.0190 ca         1 1V3      -0.052000
      9 CAJ         -1.5320    -1.7870     0.0130 ca         1 1V3      -0.133000
     10 CAF         -0.7660    -0.6100     0.0080 ca         1 1V3       0.153100
     11 OAE          0.6040    -0.7070     0.0030 os         1 1V3      -0.213200
     12 CAA          1.4440     0.3770    -0.0030 cd         1 1V3       0.210900
     13 CAH          2.8910     0.0390    -0.0080 ca         1 1V3      -0.076800
     14 CAN          3.3190    -1.3110    -0.0060 ca         1 1V3      -0.071500
     15 CAP          4.6870    -1.6350    -0.0110 ca         1 1V3      -0.116500
     16 CAR          5.6530    -0.6180    -0.0170 ca         1 1V3      -0.086000
     17 CAQ          5.2470     0.7250    -0.0190 ca         1 1V3      -0.116500
     18 CAO          3.8800     1.0520    -0.0150 ca         1 1V3      -0.071500
     19 H1           1.4850     2.5410    -0.0080 ha         1 1V3       0.216000
     20 H2          -3.3110     1.6820     0.0120 ha         1 1V3       0.154000
     21 H3          -3.5310    -2.6250     0.0230 ha         1 1V3       0.135000
     22 H4          -1.0370    -2.7550     0.0140 ha         1 1V3       0.138000
     23 H5           2.5970    -2.1250    -0.0010 ha         1 1V3       0.125000
     24 H6           4.9970    -2.6770    -0.0090 ha         1 1V3       0.119500
     25 H7           6.7110    -0.8690    -0.0210 ha         1 1V3       0.118000
     26 H8           5.9940     1.5160    -0.0240 ha         1 1V3       0.119500
     27 H9           3.6060     2.1030    -0.0160 ha         1 1V3       0.125000
@<TRIPOS>BOND
     1     1     2 1   
     2     1    12 2   
     3     1    19 1   
     4     2     3 2   
     5     2     4 1   
     6     4     5 ar  
     7     4    10 ar  
     8     5     6 ar  
     9     5    20 1   
    10     6     7 1   
    11     6     8 ar  
    12     8     9 ar  
    13     8    21 1   
    14     9    10 ar  
    15     9    22 1   
    16    10    11 1   
    17    11    12 1   
    18    12    13 1   
    19    13    14 ar  
    20    13    18 ar  
    21    14    15 ar  
    22    14    23 1   
    23    15    16 ar  
    24    15    24 1   
    25    16    17 ar  
    26    16    25 1   
    27    17    18 ar  
    28    17    26 1   
    29    18    27 1   
@<TRIPOS>SUBSTRUCTURE
     1 1V3         1 TEMP              0 ****  ****    0 ROOT
