@<TRIPOS>MOLECULE
1V4
   27    29     1     0     0
SMALL
bcc


@<TRIPOS>ATOM
      1 CAB          0.4790     1.5900    -0.0210 cc         1 1V4      -0.342200
      2 CAD         -0.9440     1.8290    -0.0180 c          1 1V4       0.595900
      3 OAI         -1.4420     2.9470    -0.0310 o          1 1V4      -0.536100
      4 CAC         -1.7600     0.6070    -0.0010 ca         1 1V4      -0.202600
      5 CAG         -3.1560     0.6610     0.0040 ca         1 1V4      -0.086000
      6 CAK         -3.8630    -0.5130     0.0210 ca         1 1V4       0.101900
      7 F1          -5.2020    -0.4740     0.0280 f          1 1V4      -0.136900
      8 CAL         -3.2370    -1.7560     0.0340 ca         1 1V4      -0.117000
      9 CAJ         -1.8600    -1.8170     0.0280 ca         1 1V4      -0.133000
     10 CAF         -1.1300    -0.6320     0.0110 ca         1 1V4       0.138100
     11 OAE          0.2150    -0.7430     0.0060 os         1 1V4      -0.217200
     12 CAA          0.9990     0.3410    -0.0090 cd         1 1V4       0.216900
     13 CAH          2.4290    -0.0000    -0.0120 ca         1 1V4      -0.074800
     14 CAN          2.8430    -1.3350    -0.0290 ca         1 1V4      -0.089500
     15 CAP          4.1930    -1.6510    -0.0330 ca         1 1V4      -0.135500
     16 CAR          5.1490    -0.6450    -0.0200 ca         1 1V4      -0.103000
     17 CAQ          4.7460     0.6840    -0.0030 ca         1 1V4      -0.135500
     18 CAO          3.3990     1.0050     0.0020 ca         1 1V4      -0.089500
     19 H1           1.1350     2.4480    -0.0350 ha         1 1V4       0.165000
     20 H2          -3.6630     1.6170    -0.0060 ha         1 1V4       0.175000
     21 H3          -3.8260    -2.6630     0.0490 ha         1 1V4       0.156000
     22 H4          -1.3510    -2.7720     0.0370 ha         1 1V4       0.155000
     23 H5           2.1220    -2.1400    -0.0400 ha         1 1V4       0.143000
     24 H6           4.4950    -2.6900    -0.0470 ha         1 1V4       0.137500
     25 H7           6.2020    -0.8930    -0.0240 ha         1 1V4       0.136000
     26 H8           5.4820     1.4760     0.0090 ha         1 1V4       0.137500
     27 H9           3.1170     2.0480     0.0170 ha         1 1V4       0.143000
@<TRIPOS>BOND
     1     1     2 1   
     2     1    12 2   
     3     1    19 1   
     4     2     3 2   
     5     2     4 1   
     6     4     5 ar  
     7     4    10 ar  
     8     5     6 ar  
     9     5    20 1   
    10     6     7 1   
    11     6     8 ar  
    12     8     9 ar  
    13     8    21 1   
    14     9    10 ar  
    15     9    22 1   
    16    10    11 1   
    17    11    12 1   
    18    12    13 1   
    19    13    14 ar  
    20    13    18 ar  
    21    14    15 ar  
    22    14    23 1   
    23    15    16 ar  
    24    15    24 1   
    25    16    17 ar  
    26    16    25 1   
    27    17    18 ar  
    28    17    26 1   
    29    18    27 1   
@<TRIPOS>SUBSTRUCTURE
     1 1V4         1 TEMP              0 ****  ****    0 ROOT
