@<TRIPOS>MOLECULE
1V4
   27    29     1     0     0
SMALL
No Charge or Current Charge


@<TRIPOS>ATOM
      1 CAB          0.4760     1.6000    -0.0080 cc         1 1V4      -0.392200
      2 CAD         -0.9650     1.8300    -0.0030 c          1 1V4       0.595900
      3 OAI         -1.4460     2.9550    -0.0050 o          1 1V4      -0.536100
      4 CAC         -1.8070     0.5980     0.0050 ca         1 1V4      -0.202600
      5 CAG         -3.2190     0.6650     0.0110 ca         1 1V4      -0.068000
      6 CAK         -3.9770    -0.5170     0.0180 ca         1 1V4       0.137000
      7 F1          -5.3270    -0.4510     0.0240 f          1 1V4      -0.172000
      8 CAL         -3.3410    -1.7690     0.0200 ca         1 1V4      -0.099000
      9 CAJ         -1.9360    -1.8370     0.0140 ca         1 1V4      -0.115000
     10 CAF         -1.1740    -0.6550     0.0060 ca         1 1V4       0.138100
     11 OAE          0.1970    -0.7480     0.0010 os         1 1V4      -0.217200
     12 CAA          1.0340     0.3390    -0.0070 cd         1 1V4       0.216900
     13 CAH          2.4810     0.0050    -0.0120 ca         1 1V4      -0.074800
     14 CAN          2.9130    -1.3440    -0.0090 ca         1 1V4      -0.071500
     15 CAP          4.2820    -1.6640    -0.0140 ca         1 1V4      -0.117500
     16 CAR          5.2450    -0.6440    -0.0220 ca         1 1V4      -0.085000
     17 CAQ          4.8360     0.6970    -0.0240 ca         1 1V4      -0.117500
     18 CAO          3.4670     1.0210    -0.0190 ca         1 1V4      -0.071500
     19 H1           1.0690     2.5030    -0.0140 ha         1 1V4       0.215000
     20 H2          -3.7300     1.6260     0.0100 ha         1 1V4       0.157000
     21 H3          -3.9350    -2.6800     0.0250 ha         1 1V4       0.138000
     22 H4          -1.4360    -2.8020     0.0150 ha         1 1V4       0.137000
     23 H5           2.1940    -2.1600    -0.0040 ha         1 1V4       0.125000
     24 H6           4.5950    -2.7060    -0.0120 ha         1 1V4       0.119500
     25 H7           6.3050    -0.8930    -0.0260 ha         1 1V4       0.118000
     26 H8           5.5800     1.4900    -0.0300 ha         1 1V4       0.119500
     27 H9           3.1900     2.0700    -0.0220 ha         1 1V4       0.125000
@<TRIPOS>BOND
     1     1     2 1   
     2     1    12 2   
     3     1    19 1   
     4     2     3 2   
     5     2     4 1   
     6     4     5 ar  
     7     4    10 ar  
     8     5     6 ar  
     9     5    20 1   
    10     6     7 1   
    11     6     8 ar  
    12     8     9 ar  
    13     8    21 1   
    14     9    10 ar  
    15     9    22 1   
    16    10    11 1   
    17    11    12 1   
    18    12    13 1   
    19    13    14 ar  
    20    13    18 ar  
    21    14    15 ar  
    22    14    23 1   
    23    15    16 ar  
    24    15    24 1   
    25    16    17 ar  
    26    16    25 1   
    27    17    18 ar  
    28    17    26 1   
    29    18    27 1   
@<TRIPOS>SUBSTRUCTURE
     1 1V4         1 TEMP              0 ****  ****    0 ROOT
