@<TRIPOS>MOLECULE
1V5
   60    65     1     0     0
SMALL
abcg2


@<TRIPOS>ATOM
      1 F60          8.4360     1.2790    -2.3210 f          1 1V5      -0.179000
      2 C53          7.5760     0.5870    -1.5540 ca         1 1V5       0.171000
      3 C52          6.2370     0.5800    -1.8800 ca         1 1V5      -0.149000
      4 C51          5.3560    -0.1340    -1.0790 ca         1 1V5      -0.075500
      5 C54          8.0560    -0.1000    -0.4560 ca         1 1V5      -0.149000
      6 C55          7.1610    -0.8070     0.3320 ca         1 1V5      -0.075500
      7 C50          5.7970    -0.8370     0.0400 ca         1 1V5      -0.063300
      8 C16          4.8380    -1.6220     0.8780 cx         1 1V5       0.098700
      9 C47          5.1610    -1.9210     2.3150 cx         1 1V5      -0.114900
     10 C31          5.2240    -3.0150     1.3060 cx         1 1V5      -0.114900
     11 N48          3.4550    -1.4470     0.5750 ns         1 1V5      -0.482900
     12 C27          2.7520    -0.3800     1.0120 c          1 1V5       0.616700
     13 O30          3.2650     0.5200     1.6590 o          1 1V5      -0.586100
     14 C39          1.3040    -0.3550     0.6570 ca         1 1V5      -0.166600
     15 C45          0.5820    -1.4990     0.2910 ca         1 1V5      -0.077000
     16 C37         -0.7620    -1.4220     0.0050 ca         1 1V5      -0.105000
     17 C40          0.6410     0.8610     0.7340 ca         1 1V5      -0.040000
     18 C32         -0.7090     0.9350     0.4360 ca         1 1V5      -0.121000
     19 N41         -1.4230     2.1280     0.4930 na         1 1V5       0.146100
     20 C44         -2.7570     2.1720     0.2260 cc         1 1V5      -0.175000
     21 N28         -3.2420     3.3840     0.3430 nd         1 1V5      -0.273600
     22 C46         -2.1830     4.1540     0.6980 cd         1 1V5      -0.062400
     23 C18         -1.0420     3.4020     0.8000 cc         1 1V5      -0.233100
     24 C43         -3.4340     0.9460    -0.1300 cc         1 1V5       0.699900
     25 N42         -2.7890    -0.1850    -0.2080 nd         1 1V5      -0.794000
     26 C33         -1.4530    -0.2030     0.0680 ca         1 1V5       0.331000
     27 N34         -4.7430     1.0250    -0.3820 nu         1 1V5      -0.907100
     28 C26         -5.5840    -0.1290    -0.6300 c6         1 1V5       0.235500
     29 C35         -6.8830     0.3180    -1.2920 c6         1 1V5      -0.090900
     30 C19         -7.7960    -0.8740    -1.5620 c6         1 1V5      -0.090900
     31 C21         -5.8770    -0.9090     0.6520 c6         1 1V5      -0.090900
     32 C36         -6.7810    -2.1010     0.3620 c6         1 1V5      -0.090900
     33 C20         -8.0850    -1.6500    -0.2870 c6         1 1V5       0.168300
     34 O17         -8.9240    -2.7370    -0.6180 oh         1 1V5      -0.658000
     35 H57          5.8770     1.1200    -2.7460 ha         1 1V5       0.131000
     36 H56          4.3090    -0.1380    -1.3490 ha         1 1V5       0.115500
     37 H58          9.1110    -0.0840    -0.2120 ha         1 1V5       0.131000
     38 H59          7.5550    -1.3400     1.1880 ha         1 1V5       0.115500
     39 H12          6.0820    -1.5260     2.7250 hc         1 1V5       0.081450
     40 H15          4.3320    -1.9190     3.0110 hc         1 1V5       0.081450
     41 H9           4.4450    -3.7670     1.3140 hc         1 1V5       0.081450
     42 H1           6.1930    -3.3790     0.9870 hc         1 1V5       0.081450
     43 H49          3.0350    -2.0870    -0.0800 hn         1 1V5       0.321500
     44 H38          1.0570    -2.4710     0.2550 ha         1 1V5       0.114000
     45 H23         -1.3160    -2.3110    -0.2640 ha         1 1V5       0.136000
     46 H24          1.1870     1.7490     1.0260 ha         1 1V5       0.143000
     47 H25         -2.2800     5.2150     0.8670 h4         1 1V5       0.232000
     48 H22         -0.0320     3.6710     1.0540 h4         1 1V5       0.240000
     49 H14         -5.1890     1.9150    -0.2200 hn         1 1V5       0.518000
     50 H10         -5.0500    -0.7880    -1.3220 h1         1 1V5       0.080700
     51 H8          -7.3950     1.0310    -0.6350 hc         1 1V5       0.051950
     52 H13         -6.6660     0.8420    -2.2250 hc         1 1V5       0.051950
     53 H29         -8.7300    -0.5280    -2.0130 hc         1 1V5       0.053950
     54 H7          -7.3190    -1.5420    -2.2870 hc         1 1V5       0.053950
     55 H2          -4.9440    -1.2470     1.1060 hc         1 1V5       0.051950
     56 H5          -6.3610    -0.2380     1.3700 hc         1 1V5       0.051950
     57 H3          -6.2710    -2.8010    -0.3090 hc         1 1V5       0.053950
     58 H6          -6.9900    -2.6420     1.2900 hc         1 1V5       0.053950
     59 H4          -8.5950    -0.9720     0.4160 h1         1 1V5       0.027700
     60 H11         -9.0970    -3.2370     0.1860 ho         1 1V5       0.443000
@<TRIPOS>BOND
     1     1     2 1   
     2     2     3 ar  
     3     2     5 ar  
     4     3     4 ar  
     5     3    35 1   
     6     4     7 ar  
     7     4    36 1   
     8     5     6 ar  
     9     5    37 1   
    10     6     7 ar  
    11     6    38 1   
    12     7     8 1   
    13     8     9 1   
    14     8    10 1   
    15     8    11 1   
    16     9    10 1   
    17     9    39 1   
    18     9    40 1   
    19    10    41 1   
    20    10    42 1   
    21    11    12 1   
    22    11    43 1   
    23    12    13 2   
    24    12    14 1   
    25    14    15 ar  
    26    14    17 ar  
    27    15    16 ar  
    28    15    44 1   
    29    16    26 ar  
    30    16    45 1   
    31    17    18 ar  
    32    17    46 1   
    33    18    19 1   
    34    18    26 ar  
    35    19    20 1   
    36    19    23 1   
    37    20    21 2   
    38    20    24 1   
    39    21    22 1   
    40    22    23 2   
    41    22    47 1   
    42    23    48 1   
    43    24    25 2   
    44    24    27 1   
    45    25    26 1   
    46    27    28 1   
    47    27    49 1   
    48    28    29 1   
    49    28    31 1   
    50    28    50 1   
    51    29    30 1   
    52    29    51 1   
    53    29    52 1   
    54    30    33 1   
    55    30    53 1   
    56    30    54 1   
    57    31    32 1   
    58    31    55 1   
    59    31    56 1   
    60    32    33 1   
    61    32    57 1   
    62    32    58 1   
    63    33    34 1   
    64    33    59 1   
    65    34    60 1   
@<TRIPOS>SUBSTRUCTURE
     1 1V5         1 TEMP              0 ****  ****    0 ROOT
