@<TRIPOS>MOLECULE
1V5
   60    65     1     0     0
SMALL
No Charge or Current Charge


@<TRIPOS>ATOM
      1 F60          8.1690     0.9380    -2.9980 f          1 1V5      -0.179000
      2 C53          7.4120     0.3190    -2.0660 ca         1 1V5       0.171000
      3 C52          6.8420    -0.9320    -2.3480 ca         1 1V5      -0.149000
      4 C51          6.0530    -1.5770    -1.3780 ca         1 1V5      -0.075500
      5 C54          7.1980     0.9300    -0.8220 ca         1 1V5      -0.149000
      6 C55          6.4100     0.2860     0.1490 ca         1 1V5      -0.075500
      7 C50          5.8350    -0.9720    -0.1230 ca         1 1V5      -0.063300
      8 C16          4.9890    -1.6640     0.9090 cx         1 1V5       0.098700
      9 C47          5.4550    -1.8410     2.3370 cx         1 1V5      -0.114900
     10 C31          5.3730    -3.0340     1.4180 cx         1 1V5      -0.114900
     11 N48          3.5870    -1.4420     0.6800 ns         1 1V5      -0.482900
     12 C27          2.8880    -0.3160     1.0620 c          1 1V5       0.616700
     13 O30          3.4250     0.5980     1.6730 o          1 1V5      -0.586100
     14 C39          1.4190    -0.2730     0.6870 ca         1 1V5      -0.166600
     15 C45          0.7860    -1.3260    -0.0140 ca         1 1V5      -0.077000
     16 C37         -0.5780    -1.2450    -0.3410 ca         1 1V5      -0.105000
     17 C40          0.6470     0.8540     1.0460 ca         1 1V5      -0.040000
     18 C32         -0.7240     0.9320     0.7150 ca         1 1V5      -0.121000
     19 N41         -1.5080     2.0250     1.0540 na         1 1V5       0.146100
     20 C44         -2.8180     2.0690     0.7240 cc         1 1V5      -0.175000
     21 N28         -3.3600     3.2010     1.1510 nd         1 1V5      -0.273600
     22 C46         -2.3270     3.8880     1.7740 cd         1 1V5      -0.062400
     23 C18         -1.1500     3.1660     1.7260 cc         1 1V5      -0.233100
     24 C43         -3.3600     0.9460     0.0160 cc         1 1V5       0.699900
     25 N42         -2.7160    -0.1480    -0.3650 nd         1 1V5      -0.794000
     26 C33         -1.3520    -0.1280     0.0120 ca         1 1V5       0.331000
     27 N34         -4.6820     1.0420    -0.2940 nu         1 1V5      -0.907100
     28 C26         -5.5530    -0.0830    -0.6670 c6         1 1V5       0.235500
     29 C35         -6.7630     0.4550    -1.4730 c6         1 1V5      -0.090900
     30 C19         -7.7540    -0.6840    -1.8250 c6         1 1V5      -0.090900
     31 C21         -6.0350    -0.8210     0.6090 c6         1 1V5      -0.090900
     32 C36         -7.0280    -1.9610     0.2600 c6         1 1V5      -0.090900
     33 C20         -8.2350    -1.4270    -0.5530 c6         1 1V5       0.168300
     34 O17         -9.0940    -2.5080    -0.9200 oh         1 1V5      -0.658000
     35 H57          7.0110    -1.3990    -3.3150 ha         1 1V5       0.131000
     36 H56          5.6110    -2.5450    -1.6000 ha         1 1V5       0.115500
     37 H58          7.6410     1.9000    -0.6110 ha         1 1V5       0.131000
     38 H59          6.2420     0.7650     1.1110 ha         1 1V5       0.115500
     39 H12          6.4430    -1.4730     2.5980 hc         1 1V5       0.081450
     40 H15          4.7150    -1.7590     3.1290 hc         1 1V5       0.081450
     41 H9           4.5800    -3.7560     1.5960 hc         1 1V5       0.081450
     42 H1           6.3070    -3.4630     1.0640 hc         1 1V5       0.081450
     43 H49          3.0630    -2.1420     0.1750 hn         1 1V5       0.321500
     44 H38          1.3310    -2.2160    -0.3150 ha         1 1V5       0.114000
     45 H23         -1.0450    -2.0650    -0.8800 ha         1 1V5       0.136000
     46 H24          1.1230     1.6690     1.5850 ha         1 1V5       0.143000
     47 H25         -2.4880     4.8660     2.2250 h4         1 1V5       0.232000
     48 H22         -0.1580     3.3810     2.1010 h4         1 1V5       0.240000
     49 H14         -5.0950     1.8820     0.1020 hn         1 1V5       0.518000
     50 H10         -5.0150    -0.8010    -1.3070 h1         1 1V5       0.080700
     51 H8          -7.2870     1.2290    -0.8960 hc         1 1V5       0.051950
     52 H13         -6.4120     0.9360    -2.3970 hc         1 1V5       0.051950
     53 H29         -8.6180    -0.2700    -2.3630 hc         1 1V5       0.053950
     54 H7          -7.2710    -1.3940    -2.5110 hc         1 1V5       0.053950
     55 H2          -5.1740    -1.2370     1.1490 hc         1 1V5       0.051950
     56 H5          -6.5200    -0.1100     1.2940 hc         1 1V5       0.051950
     57 H3          -6.5050    -2.7380    -0.3150 hc         1 1V5       0.053950
     58 H6          -7.3780    -2.4380     1.1850 hc         1 1V5       0.053950
     59 H4          -8.7880    -0.7120     0.0750 h1         1 1V5       0.027700
     60 H11         -9.4410    -2.8890    -0.0830 ho         1 1V5       0.443000
@<TRIPOS>BOND
     1     1     2 1   
     2     2     3 ar  
     3     2     5 ar  
     4     3     4 ar  
     5     3    35 1   
     6     4     7 ar  
     7     4    36 1   
     8     5     6 ar  
     9     5    37 1   
    10     6     7 ar  
    11     6    38 1   
    12     7     8 1   
    13     8     9 1   
    14     8    10 1   
    15     8    11 1   
    16     9    10 1   
    17     9    39 1   
    18     9    40 1   
    19    10    41 1   
    20    10    42 1   
    21    11    12 1   
    22    11    43 1   
    23    12    13 2   
    24    12    14 1   
    25    14    15 ar  
    26    14    17 ar  
    27    15    16 ar  
    28    15    44 1   
    29    16    26 ar  
    30    16    45 1   
    31    17    18 ar  
    32    17    46 1   
    33    18    19 1   
    34    18    26 ar  
    35    19    20 1   
    36    19    23 1   
    37    20    21 2   
    38    20    24 1   
    39    21    22 1   
    40    22    23 2   
    41    22    47 1   
    42    23    48 1   
    43    24    25 2   
    44    24    27 1   
    45    25    26 1   
    46    27    28 1   
    47    27    49 1   
    48    28    29 1   
    49    28    31 1   
    50    28    50 1   
    51    29    30 1   
    52    29    51 1   
    53    29    52 1   
    54    30    33 1   
    55    30    53 1   
    56    30    54 1   
    57    31    32 1   
    58    31    55 1   
    59    31    56 1   
    60    32    33 1   
    61    32    57 1   
    62    32    58 1   
    63    33    34 1   
    64    33    59 1   
    65    34    60 1   
@<TRIPOS>SUBSTRUCTURE
     1 1V5         1 TEMP              0 ****  ****    0 ROOT
