@<TRIPOS>MOLECULE
1V6
   33    35     1     0     0
SMALL
abcg2


@<TRIPOS>ATOM
      1 CAE         -4.3960     1.2790    -0.2360 ca         1 1V6      -0.103500
      2 CAC         -5.1660     1.5560     0.8870 ca         1 1V6      -0.109000
      3 CAB         -5.4250     0.5590     1.8180 ca         1 1V6      -0.111000
      4 CAD         -4.9130    -0.7170     1.6140 ca         1 1V6      -0.109000
      5 CAF         -4.1450    -0.9890     0.4910 ca         1 1V6      -0.103500
      6 CAO         -3.8760     0.0050    -0.4470 ca         1 1V6      -0.076300
      7 CAL         -3.0070    -0.2910    -1.6450 c3         1 1V6       0.014200
      8 CAP         -1.5450    -0.2900    -1.2760 ca         1 1V6      -0.067300
      9 CAH         -0.8750    -1.4780    -0.9950 ca         1 1V6      -0.113000
     10 CAJ          0.4570    -1.4760    -0.6140 ca         1 1V6      -0.083000
     11 CAG         -0.8350     0.9020    -1.1670 ca         1 1V6      -0.113000
     12 CAI          0.4980     0.9100    -0.7880 ca         1 1V6      -0.083000
     13 CAQ          1.1680    -0.2810    -0.5010 ca         1 1V6      -0.123500
     14 CAS          2.5790    -0.2590    -0.0970 cc         1 1V6       0.391500
     15 NAM          3.2470     0.9410    -0.0690 nc         1 1V6      -0.729000
     16 CAR          4.4770     0.7930     0.3070 cd         1 1V6       0.699300
     17 NAA          5.3860     1.7920     0.3720 nv         1 1V6      -1.040900
     18 SAN          4.9250    -0.8540     0.6660 ss         1 1V6      -0.107400
     19 CAK          3.3180    -1.3400     0.2700 cd         1 1V6      -0.275000
     20 H1          -4.2050     2.0630    -0.9600 ha         1 1V6       0.109500
     21 H2          -5.5640     2.5520     1.0330 ha         1 1V6       0.111000
     22 H3          -6.0260     0.7720     2.6920 ha         1 1V6       0.111000
     23 H4          -5.1160    -1.5030     2.3300 ha         1 1V6       0.111000
     24 H5          -3.7510    -1.9880     0.3420 ha         1 1V6       0.109500
     25 H6          -3.2760    -1.2640    -2.0610 hc         1 1V6       0.054200
     26 H7          -3.1920     0.4500    -2.4250 hc         1 1V6       0.054200
     27 H8          -1.3990    -2.4220    -1.0840 ha         1 1V6       0.110500
     28 H9           0.9400    -2.4240    -0.4100 ha         1 1V6       0.122000
     29 H10         -1.3270     1.8430    -1.3850 ha         1 1V6       0.110500
     30 H11          1.0260     1.8510    -0.7130 ha         1 1V6       0.122000
     31 H12          5.0100     2.7270     0.3860 hn         1 1V6       0.477000
     32 H13          6.1980     1.6670     0.9540 hn         1 1V6       0.477000
     33 H14          3.0260    -2.3760     0.3400 h4         1 1V6       0.161000
@<TRIPOS>BOND
     1     1     2 ar  
     2     1     6 ar  
     3     1    20 1   
     4     2     3 ar  
     5     2    21 1   
     6     3     4 ar  
     7     3    22 1   
     8     4     5 ar  
     9     4    23 1   
    10     5     6 ar  
    11     5    24 1   
    12     6     7 1   
    13     7     8 1   
    14     7    25 1   
    15     7    26 1   
    16     8     9 ar  
    17     8    11 ar  
    18     9    10 ar  
    19     9    27 1   
    20    10    13 ar  
    21    10    28 1   
    22    11    12 ar  
    23    11    29 1   
    24    12    13 ar  
    25    12    30 1   
    26    13    14 1   
    27    14    15 1   
    28    14    19 2   
    29    15    16 2   
    30    16    17 1   
    31    16    18 1   
    32    17    31 1   
    33    17    32 1   
    34    18    19 1   
    35    19    33 1   
@<TRIPOS>SUBSTRUCTURE
     1 1V6         1 TEMP              0 ****  ****    0 ROOT
