@<TRIPOS>MOLECULE
1V6
   33    35     1     0     0
SMALL
No Charge or Current Charge


@<TRIPOS>ATOM
      1 CAE         -4.2910     1.2740    -0.0330 ca         1 1V6      -0.103500
      2 CAC         -5.1480     1.4300     1.0710 ca         1 1V6      -0.109000
      3 CAB         -5.6140     0.3010     1.7640 ca         1 1V6      -0.111000
      4 CAD         -5.2220    -0.9850     1.3540 ca         1 1V6      -0.109000
      5 CAF         -4.3650    -1.1400     0.2500 ca         1 1V6      -0.103500
      6 CAO         -3.8960    -0.0120    -0.4510 ca         1 1V6      -0.076300
      7 CAL         -2.9630    -0.1800    -1.6430 c3         1 1V6       0.014200
      8 CAP         -1.5020    -0.1670    -1.2150 ca         1 1V6      -0.067300
      9 CAH         -0.8530    -1.3630    -0.8610 ca         1 1V6      -0.113000
     10 CAJ          0.4950    -1.3530    -0.4610 ca         1 1V6      -0.083000
     11 CAG         -0.7830     1.0410    -1.1700 ca         1 1V6      -0.113000
     12 CAI          0.5640     1.0530    -0.7710 ca         1 1V6      -0.083000
     13 CAQ          1.2190    -0.1400    -0.3910 ca         1 1V6      -0.123500
     14 CAS          2.6410    -0.1150    -0.0090 cc         1 1V6       0.391500
     15 NAM          3.4880     0.9010    -0.3750 nc         1 1V6      -0.729000
     16 CAR          4.6640     0.6470     0.1270 cd         1 1V6       0.699300
     17 NAA          5.6240     1.5440    -0.1200 nv         1 1V6      -1.040900
     18 SAN          4.8620    -0.8060     1.0950 ss         1 1V6      -0.107400
     19 CAK          3.1620    -1.1150     0.7820 cd         1 1V6      -0.275000
     20 H1          -3.9330     2.1540    -0.5630 ha         1 1V6       0.109500
     21 H2          -5.4490     2.4260     1.3880 ha         1 1V6       0.111000
     22 H3          -6.2760     0.4210     2.6190 ha         1 1V6       0.111000
     23 H4          -5.5800    -1.8600     1.8910 ha         1 1V6       0.111000
     24 H5          -4.0640    -2.1390    -0.0590 ha         1 1V6       0.109500
     25 H6          -3.1920    -1.1160    -2.1690 hc         1 1V6       0.054200
     26 H7          -3.1460     0.6140    -2.3770 hc         1 1V6       0.054200
     27 H8          -1.3920    -2.3070    -0.8990 ha         1 1V6       0.110500
     28 H9           0.9690    -2.3000    -0.2160 ha         1 1V6       0.122000
     29 H10         -1.2690     1.9740    -1.4450 ha         1 1V6       0.110500
     30 H11          1.0970     2.0020    -0.7480 ha         1 1V6       0.122000
     31 H12          5.2910     2.4380    -0.4590 hn         1 1V6       0.477000
     32 H13          6.4130     1.5650     0.5150 hn         1 1V6       0.477000
     33 H14          2.6660    -1.9780     1.2040 h4         1 1V6       0.161000
@<TRIPOS>BOND
     1     1     2 ar  
     2     1     6 ar  
     3     1    20 1   
     4     2     3 ar  
     5     2    21 1   
     6     3     4 ar  
     7     3    22 1   
     8     4     5 ar  
     9     4    23 1   
    10     5     6 ar  
    11     5    24 1   
    12     6     7 1   
    13     7     8 1   
    14     7    25 1   
    15     7    26 1   
    16     8     9 ar  
    17     8    11 ar  
    18     9    10 ar  
    19     9    27 1   
    20    10    13 ar  
    21    10    28 1   
    22    11    12 ar  
    23    11    29 1   
    24    12    13 ar  
    25    12    30 1   
    26    13    14 1   
    27    14    15 1   
    28    14    19 2   
    29    15    16 2   
    30    16    17 1   
    31    16    18 1   
    32    17    31 1   
    33    17    32 1   
    34    18    19 1   
    35    19    33 1   
@<TRIPOS>SUBSTRUCTURE
     1 1V6         1 TEMP              0 ****  ****    0 ROOT
