@<TRIPOS>MOLECULE
1V7
   87    91     1     0     0
SMALL
No Charge or Current Charge


@<TRIPOS>ATOM
      1 C1           6.8310     2.9470   -12.5980 c3         1 1V7       0.094300
      2 N1           3.4110     6.0700    -7.7900 nc         1 1V7      -0.554100
      3 O1          -0.2260     9.7000    -4.6510 oh         1 1V7      -0.530100
      4 C2           3.5310     3.8530   -10.8140 ca         1 1V7      -0.169600
      5 O2          -4.8340     4.7250    -6.3490 os         1 1V7      -0.332100
      6 O3          -3.8120     5.3550    -9.6190 o          1 1V7      -0.584100
      7 C16         -3.8090     5.5740    -8.4140 c          1 1V7       0.614100
      8 C17         -5.0770     5.5070    -7.5410 c3         1 1V7       0.083600
      9 C18         -5.7530     4.5840    -5.3270 ca         1 1V7       0.142100
     10 C27         -6.9700     5.3060    -5.3640 ca         1 1V7      -0.203000
     11 C26         -7.9040     5.1900    -4.3280 ca         1 1V7      -0.076000
     12 C25         -7.6310     4.3510    -3.2450 ca         1 1V7      -0.143000
     13 C24         -6.4330     3.6240    -3.1940 ca         1 1V7      -0.082000
     14 C19         -5.4610     3.7160    -4.2290 ca         1 1V7      -0.081300
     15 C20         -4.1420     2.8690    -4.1690 c3         1 1V7       0.015300
     16 C23         -2.8860     3.7870    -4.2050 c3         1 1V7      -0.085100
     17 C22         -4.0270     2.0160    -2.8700 c3         1 1V7      -0.085100
     18 C21         -4.1090     1.8720    -5.3600 c3         1 1V7      -0.085100
     19 C15         -1.3170     6.0240    -8.3240 c3         1 1V7       0.095000
     20 C14         -0.2260     5.3610    -7.4420 c3         1 1V7       0.123600
     21 C28         -0.4110     3.8650    -7.1340 ca         1 1V7      -0.115300
     22 C35          0.3170     3.3120    -6.0640 ca         1 1V7      -0.091000
     23 C34          0.1970     1.9530    -5.7350 ca         1 1V7      -0.175000
     24 C32         -0.6600     1.1150    -6.4800 ca         1 1V7       0.124100
     25 O5          -0.8100    -0.2300    -6.1780 os         1 1V7      -0.317100
     26 C33         -0.1470    -0.8480    -5.0630 c3         1 1V7       0.143900
     27 C30         -1.3970     1.6550    -7.5600 ca         1 1V7       0.118100
     28 O4          -2.2390     0.8150    -8.2730 os         1 1V7      -0.322100
     29 C31         -3.0870     1.2870    -9.3340 c3         1 1V7       0.137900
     30 C29         -1.2690     3.0250    -7.8810 ca         1 1V7      -0.144000
     31 N2           1.1390     5.6630    -7.9310 na         1 1V7      -0.172600
     32 C5           1.7740     4.9960    -8.9510 ca         1 1V7      -0.047200
     33 C4           1.2430     4.1890    -9.9680 ca         1 1V7      -0.115000
     34 C3           2.1320     3.6170   -10.8990 ca         1 1V7      -0.047000
     35 C7           2.1960     6.3140    -7.2550 cd         1 1V7       0.454400
     36 C8           2.0580     7.1700    -6.0520 ca         1 1V7      -0.057900
     37 C13          3.0840     7.2040    -5.0810 ca         1 1V7      -0.110000
     38 C12          2.9830     8.0400    -3.9550 ca         1 1V7      -0.046000
     39 C11          1.8640     8.8740    -3.7980 ca         1 1V7      -0.110900
     40 Br           1.7500    10.0080    -2.2540 br         1 1V7      -0.091100
     41 C10          0.8540     8.8790    -4.7760 ca         1 1V7       0.171100
     42 C9           0.9570     8.0420    -5.8980 ca         1 1V7      -0.145000
     43 C6           3.1140     5.2410    -8.8550 ca         1 1V7       0.050400
     44 C36          4.0200     4.6830    -9.7690 ca         1 1V7      -0.024000
     45 C            4.4520     3.2180   -11.8330 c          1 1V7       0.612700
     46 O            4.0320     2.5060   -12.7360 o          1 1V7      -0.603100
     47 N            5.7990     3.4760   -11.7040 ns         1 1V7      -0.505900
     48 H1           7.8170     3.3040   -12.2730 h1         1 1V7       0.040033
     49 H2           6.8170     1.8500   -12.5710 h1         1 1V7       0.040033
     50 H3           6.6430     3.2890   -13.6240 h1         1 1V7       0.040033
     51 H4          -0.1190    10.2080    -3.8170 ho         1 1V7       0.485000
     52 H5          -5.3340     6.5400    -7.2790 h1         1 1V7       0.051200
     53 H6          -5.8910     5.0740    -8.1360 h1         1 1V7       0.051200
     54 H7          -7.2120     5.9670    -6.1900 ha         1 1V7       0.111000
     55 H8          -8.8360     5.7500    -4.3650 ha         1 1V7       0.112000
     56 H9          -8.3550     4.2590    -2.4380 ha         1 1V7       0.115000
     57 H10         -6.2890     2.9870    -2.3280 ha         1 1V7       0.116000
     58 H11         -2.9530     4.5640    -3.4350 hc         1 1V7       0.036922
     59 H12         -1.9730     3.2080    -4.0190 hc         1 1V7       0.036922
     60 H13         -2.7500     4.2770    -5.1730 hc         1 1V7       0.036922
     61 H14         -4.0300     2.6520    -1.9760 hc         1 1V7       0.036922
     62 H15         -4.8490     1.2940    -2.7930 hc         1 1V7       0.036922
     63 H16         -3.0930     1.4410    -2.8580 hc         1 1V7       0.036922
     64 H17         -3.2570     1.1880    -5.2730 hc         1 1V7       0.036922
     65 H18         -5.0230     1.2660    -5.3810 hc         1 1V7       0.036922
     66 H19         -4.0210     2.3810    -6.3250 hc         1 1V7       0.036922
     67 H20         -2.7660     6.0670    -6.7350 hn         1 1V7       0.317500
     68 H21         -1.3100     5.5740    -9.3240 h1         1 1V7       0.071700
     69 H22         -1.0810     7.0890    -8.4470 h1         1 1V7       0.071700
     70 H23         -0.3160     5.8500    -6.4650 h1         1 1V7       0.070700
     71 H24          0.9840     3.9420    -5.4790 ha         1 1V7       0.113000
     72 H25          0.7760     1.5710    -4.9000 ha         1 1V7       0.121000
     73 H26         -0.4160    -1.9100    -5.0030 h1         1 1V7       0.040700
     74 H27          0.9430    -0.7800    -5.1710 h1         1 1V7       0.040700
     75 H28         -0.4400    -0.3690    -4.1200 h1         1 1V7       0.040700
     76 H29         -3.6820     0.4590    -9.7410 h1         1 1V7       0.046367
     77 H30         -3.7810     2.0550    -8.9670 h1         1 1V7       0.046367
     78 H31         -2.4910     1.7100   -10.1530 h1         1 1V7       0.046367
     79 H32         -1.8260     3.4370    -8.7130 ha         1 1V7       0.134000
     80 H33          0.1770     4.0020   -10.0490 ha         1 1V7       0.126000
     81 H34          1.7290     2.9870   -11.6900 ha         1 1V7       0.136000
     82 H35          3.9600     6.5670    -5.1880 ha         1 1V7       0.140000
     83 H36          3.7740     8.0430    -3.2090 ha         1 1V7       0.134000
     84 H37          0.1820     8.0910    -6.6570 ha         1 1V7       0.133000
     85 H38          5.0770     4.9040    -9.6540 ha         1 1V7       0.129000
     86 H39          6.0850     4.0710   -10.9370 hn         1 1V7       0.317500
     87 N3          -2.6610     5.9220    -7.7330 ns         1 1V7      -0.501900
@<TRIPOS>BOND
     1     1    47 1   
     2     1    48 1   
     3     1    49 1   
     4     1    50 1   
     5     2    35 2   
     6     2    43 1   
     7     3    41 1   
     8     3    51 1   
     9     4    34 ar  
    10     4    44 ar  
    11     4    45 1   
    12     5     8 1   
    13     5     9 1   
    14     6     7 2   
    15     7     8 1   
    16     7    87 1   
    17     8    52 1   
    18     8    53 1   
    19     9    10 ar  
    20     9    14 ar  
    21    10    11 ar  
    22    10    54 1   
    23    11    12 ar  
    24    11    55 1   
    25    12    13 ar  
    26    12    56 1   
    27    13    14 ar  
    28    13    57 1   
    29    14    15 1   
    30    15    16 1   
    31    15    17 1   
    32    15    18 1   
    33    16    58 1   
    34    16    59 1   
    35    16    60 1   
    36    17    61 1   
    37    17    62 1   
    38    17    63 1   
    39    18    64 1   
    40    18    65 1   
    41    18    66 1   
    42    19    20 1   
    43    19    68 1   
    44    19    69 1   
    45    19    87 1   
    46    20    21 1   
    47    20    31 1   
    48    20    70 1   
    49    21    22 ar  
    50    21    30 ar  
    51    22    23 ar  
    52    22    71 1   
    53    23    24 ar  
    54    23    72 1   
    55    24    25 1   
    56    24    27 ar  
    57    25    26 1   
    58    26    73 1   
    59    26    74 1   
    60    26    75 1   
    61    27    28 1   
    62    27    30 ar  
    63    28    29 1   
    64    29    76 1   
    65    29    77 1   
    66    29    78 1   
    67    30    79 1   
    68    31    32 1   
    69    31    35 1   
    70    32    33 ar  
    71    32    43 ar  
    72    33    34 ar  
    73    33    80 1   
    74    34    81 1   
    75    35    36 1   
    76    36    37 ar  
    77    36    42 ar  
    78    37    38 ar  
    79    37    82 1   
    80    38    39 ar  
    81    38    83 1   
    82    39    40 1   
    83    39    41 ar  
    84    41    42 ar  
    85    42    84 1   
    86    43    44 ar  
    87    44    85 1   
    88    45    46 2   
    89    45    47 1   
    90    47    86 1   
    91    67    87 1   
@<TRIPOS>SUBSTRUCTURE
     1 1V7         1 TEMP              0 ****  ****    0 ROOT
