@<TRIPOS>MOLECULE
1V7
   87    91     1     0     0
SMALL
bcc


@<TRIPOS>ATOM
      1 C1           6.5680     2.6700   -12.7300 c3         1 1V7       0.094300
      2 N1           3.4290     6.3070    -8.0880 nc         1 1V7      -0.554100
      3 O1           0.0970    10.1900    -5.3270 oh         1 1V7      -0.491100
      4 C2           3.4980     3.9970   -10.9790 ca         1 1V7      -0.169600
      5 O2          -4.8100     4.6140    -6.0800 os         1 1V7      -0.308900
      6 O3          -3.6590     4.7090    -8.6750 o          1 1V7      -0.584100
      7 C16         -3.5110     5.5240    -7.7800 c          1 1V7       0.681100
      8 C17         -4.6370     5.8120    -6.7970 c3         1 1V7       0.060400
      9 C18         -5.7840     4.5200    -5.1460 ca         1 1V7       0.142100
     10 C27         -6.6830     5.5570    -4.9170 ca         1 1V7      -0.221000
     11 C26         -7.6820     5.4250    -3.9620 ca         1 1V7      -0.094000
     12 C25         -7.7820     4.2550    -3.2350 ca         1 1V7      -0.161000
     13 C24         -6.8720     3.2290    -3.4670 ca         1 1V7      -0.100000
     14 C19         -5.8520     3.3170    -4.4100 ca         1 1V7      -0.081300
     15 C20         -4.8540     2.1700    -4.6070 c3         1 1V7       0.015300
     16 C23         -3.4320     2.6320    -4.2560 c3         1 1V7      -0.085100
     17 C22         -5.1710     0.9830    -3.6880 c3         1 1V7      -0.085100
     18 C21         -4.9040     1.6320    -6.0450 c3         1 1V7      -0.085100
     19 C15         -1.1640     6.0830    -8.3130 c3         1 1V7       0.095000
     20 C14         -0.0500     5.5520    -7.4040 c3         1 1V7       0.094300
     21 C28         -0.1960     4.1270    -6.9130 ca         1 1V7      -0.115300
     22 C35          0.4440     3.7750    -5.7380 ca         1 1V7      -0.109000
     23 C34          0.3940     2.4690    -5.2590 ca         1 1V7      -0.193000
     24 C32         -0.3050     1.4940    -5.9510 ca         1 1V7       0.124100
     25 O5          -0.4280     0.2110    -5.5680 os         1 1V7      -0.293900
     26 C33          0.1730    -0.1800    -4.3510 c3         1 1V7       0.120700
     27 C30         -0.9660     1.8420    -7.1460 ca         1 1V7       0.118100
     28 O4          -1.6270     0.8400    -7.7560 os         1 1V7      -0.298900
     29 C31         -2.3350     1.1290    -8.9430 c3         1 1V7       0.114700
     30 C29         -0.9080     3.1470    -7.6090 ca         1 1V7      -0.162000
     31 N2           1.2640     5.7580    -8.0140 na         1 1V7      -0.143300
     32 C5           1.8020     5.0580    -9.0670 ca         1 1V7      -0.047200
     33 C4           1.2690     4.1740   -10.0030 ca         1 1V7      -0.133000
     34 C3           2.1310     3.6660   -10.9540 ca         1 1V7      -0.065000
     35 C7           2.2950     6.4870    -7.4740 cd         1 1V7       0.454400
     36 C8           2.1530     7.3960    -6.3300 ca         1 1V7      -0.057900
     37 C13          3.0590     7.3010    -5.2760 ca         1 1V7      -0.128000
     38 C12          2.9650     8.1780    -4.2120 ca         1 1V7      -0.064000
     39 C11          1.9800     9.1550    -4.1950 ca         1 1V7      -0.110900
     40 BR           1.8870    10.3380    -2.7280 br         1 1V7      -0.091100
     41 C10          1.0680     9.2740    -5.2480 ca         1 1V7       0.171100
     42 C9           1.1730     8.3790    -6.3120 ca         1 1V7      -0.163000
     43 C6           3.1580     5.4150    -9.0920 ca         1 1V7       0.050400
     44 C36          4.0180     4.8860   -10.0500 ca         1 1V7      -0.042000
     45 C            4.3400     3.3950   -12.0580 c          1 1V7       0.679700
     46 O            3.8600     3.0740   -13.1370 o          1 1V7      -0.603100
     47 N            5.6410     3.2270   -11.7740 ns         1 1V7      -0.572900
     48 H1           7.5680     2.7160   -12.3070 h1         1 1V7       0.040033
     49 H2           6.3410     1.6280   -12.9630 h1         1 1V7       0.040033
     50 H3           6.5640     3.2370   -13.6600 h1         1 1V7       0.040033
     51 H4           0.0860    10.7880    -4.5700 ho         1 1V7       0.446000
     52 H5          -4.4050     6.6470    -6.1260 h1         1 1V7       0.051200
     53 H6          -5.5320     6.0800    -7.3680 h1         1 1V7       0.051200
     54 H7          -6.6220     6.4800    -5.4780 ha         1 1V7       0.129000
     55 H8          -8.3730     6.2410    -3.7970 ha         1 1V7       0.130000
     56 H9          -8.5540     4.1310    -2.4870 ha         1 1V7       0.133000
     57 H10         -6.9720     2.3280    -2.8800 ha         1 1V7       0.134000
     58 H11         -3.3800     2.9730    -3.2200 hc         1 1V7       0.036922
     59 H12         -2.7370     1.7960    -4.3630 hc         1 1V7       0.036922
     60 H13         -3.0710     3.4360    -4.8940 hc         1 1V7       0.036922
     61 H14         -5.1090     1.2460    -2.6310 hc         1 1V7       0.036922
     62 H15         -6.1600     0.5650    -3.8800 hc         1 1V7       0.036922
     63 H16         -4.4420     0.1920    -3.8700 hc         1 1V7       0.036922
     64 H17         -4.2050     0.8000    -6.1510 hc         1 1V7       0.036922
     65 H18         -5.9020     1.2570    -6.2810 hc         1 1V7       0.036922
     66 H19         -4.6400     2.3790    -6.7890 hc         1 1V7       0.036922
     67 H20         -2.3710     6.8780    -6.7970 hn         1 1V7       0.317500
     68 H21         -1.3430     5.4500    -9.1780 h1         1 1V7       0.071700
     69 H22         -0.8580     7.0600    -8.6940 h1         1 1V7       0.071700
     70 H23         -0.0520     6.1890    -6.5180 h1         1 1V7       0.070700
     71 H24          0.9970     4.5170    -5.1740 ha         1 1V7       0.131000
     72 H25          0.9020     2.2330    -4.3340 ha         1 1V7       0.139000
     73 H26         -0.0510    -1.2360    -4.2220 h1         1 1V7       0.040700
     74 H27          1.2580    -0.0500    -4.3690 h1         1 1V7       0.040700
     75 H28         -0.2340     0.3720    -3.4990 h1         1 1V7       0.040700
     76 H29         -2.8110     0.2010    -9.2520 h1         1 1V7       0.046367
     77 H30         -3.1070     1.8850    -8.7840 h1         1 1V7       0.046367
     78 H31         -1.6710     1.4660    -9.7440 h1         1 1V7       0.046367
     79 H32         -1.4380     3.4070    -8.5130 ha         1 1V7       0.152000
     80 H33          0.2270     3.8900   -10.0150 ha         1 1V7       0.144000
     81 H34          1.7420     2.9860   -11.6980 ha         1 1V7       0.154000
     82 H35          3.8290     6.5420    -5.2820 ha         1 1V7       0.158000
     83 H36          3.6630     8.0980    -3.3900 ha         1 1V7       0.152000
     84 H37          0.4830     8.4930    -7.1390 ha         1 1V7       0.151000
     85 H38          5.0560     5.1950   -10.0620 ha         1 1V7       0.147000
     86 H39          5.9660     3.3660   -10.8320 hn         1 1V7       0.317500
     87 N3          -2.3860     6.2220    -7.5630 ns         1 1V7      -0.568900
@<TRIPOS>BOND
     1     1    47 1   
     2     1    48 1   
     3     1    49 1   
     4     1    50 1   
     5     2    35 2   
     6     2    43 1   
     7     3    41 1   
     8     3    51 1   
     9     4    34 ar  
    10     4    44 ar  
    11     4    45 1   
    12     5     8 1   
    13     5     9 1   
    14     6     7 2   
    15     7     8 1   
    16     7    87 1   
    17     8    52 1   
    18     8    53 1   
    19     9    10 ar  
    20     9    14 ar  
    21    10    11 ar  
    22    10    54 1   
    23    11    12 ar  
    24    11    55 1   
    25    12    13 ar  
    26    12    56 1   
    27    13    14 ar  
    28    13    57 1   
    29    14    15 1   
    30    15    16 1   
    31    15    17 1   
    32    15    18 1   
    33    16    58 1   
    34    16    59 1   
    35    16    60 1   
    36    17    61 1   
    37    17    62 1   
    38    17    63 1   
    39    18    64 1   
    40    18    65 1   
    41    18    66 1   
    42    19    20 1   
    43    19    68 1   
    44    19    69 1   
    45    19    87 1   
    46    20    21 1   
    47    20    31 1   
    48    20    70 1   
    49    21    22 ar  
    50    21    30 ar  
    51    22    23 ar  
    52    22    71 1   
    53    23    24 ar  
    54    23    72 1   
    55    24    25 1   
    56    24    27 ar  
    57    25    26 1   
    58    26    73 1   
    59    26    74 1   
    60    26    75 1   
    61    27    28 1   
    62    27    30 ar  
    63    28    29 1   
    64    29    76 1   
    65    29    77 1   
    66    29    78 1   
    67    30    79 1   
    68    31    32 1   
    69    31    35 1   
    70    32    33 ar  
    71    32    43 ar  
    72    33    34 ar  
    73    33    80 1   
    74    34    81 1   
    75    35    36 1   
    76    36    37 ar  
    77    36    42 ar  
    78    37    38 ar  
    79    37    82 1   
    80    38    39 ar  
    81    38    83 1   
    82    39    40 1   
    83    39    41 ar  
    84    41    42 ar  
    85    42    84 1   
    86    43    44 ar  
    87    44    85 1   
    88    45    46 2   
    89    45    47 1   
    90    47    86 1   
    91    67    87 1   
@<TRIPOS>SUBSTRUCTURE
     1 1V7         1 TEMP              0 ****  ****    0 ROOT
