@<TRIPOS>MOLECULE
1V8
   30    33     1     0     0
SMALL
bcc


@<TRIPOS>ATOM
      1 CAI         -1.6900     0.7050     0.2950 ca         1 1V8      -0.075000
      2 CAH         -3.0570     0.7010     0.2390 ca         1 1V8       0.042100
      3 OAK         -3.9080     1.7260     0.4700 os         1 1V8      -0.317900
      4 CAM         -5.2200     1.1840     0.4150 c5         1 1V8       0.328200
      5 OAL         -5.0990    -0.1450    -0.0860 os         1 1V8      -0.315900
      6 CAJ         -3.7830    -0.4320    -0.0990 ca         1 1V8       0.077100
      7 CAP         -3.1640    -1.6210    -0.4040 ca         1 1V8      -0.124000
      8 CAO         -1.7700    -1.6380    -0.3500 ca         1 1V8      -0.091000
      9 CAG         -1.0350    -0.5080    -0.0010 ca         1 1V8      -0.077800
     10 CAA          0.4270    -0.5780     0.0580 cc         1 1V8       0.212900
     11 OAC          1.0050     0.6170    -0.1160 os         1 1V8      -0.217200
     12 CAF          2.3500     0.7480    -0.0850 ca         1 1V8       0.152100
     13 CAR          2.8590     2.0300    -0.2660 ca         1 1V8      -0.159000
     14 CAT          4.2270     2.2090    -0.2490 ca         1 1V8      -0.075000
     15 CAS          5.0870     1.1240    -0.0540 ca         1 1V8      -0.165000
     16 CAQ          4.5670    -0.1400     0.1240 ca         1 1V8      -0.043000
     17 CAE          3.1850    -0.3490     0.1110 ca         1 1V8      -0.226600
     18 CAD          2.5950    -1.6810     0.3040 c          1 1V8       0.596900
     19 OAN          3.2780    -2.6810     0.4870 o          1 1V8      -0.542100
     20 CAB          1.1520    -1.7000     0.2750 cd         1 1V8      -0.339200
     21 H1          -1.1490     1.6010     0.5690 ha         1 1V8       0.166000
     22 H2          -5.6570     1.1610     1.4170 h2         1 1V8       0.068700
     23 H3          -5.8380     1.7750    -0.2610 h2         1 1V8       0.068700
     24 H4          -3.7230    -2.5020    -0.6880 ha         1 1V8       0.159000
     25 H5          -1.2600    -2.5550    -0.6100 ha         1 1V8       0.148000
     26 H6           2.1860     2.8640    -0.4180 ha         1 1V8       0.151000
     27 H7           4.6340     3.2010    -0.3910 ha         1 1V8       0.138000
     28 H8           6.1570     1.2780    -0.0430 ha         1 1V8       0.141000
     29 H9           5.2240    -0.9860     0.2770 ha         1 1V8       0.156000
     30 H10          0.6440    -2.6370     0.4510 ha         1 1V8       0.163000
@<TRIPOS>BOND
     1     1     2 ar  
     2     1     9 ar  
     3     1    21 1   
     4     2     3 1   
     5     2     6 ar  
     6     3     4 1   
     7     4     5 1   
     8     4    22 1   
     9     4    23 1   
    10     5     6 1   
    11     6     7 ar  
    12     7     8 ar  
    13     7    24 1   
    14     8     9 ar  
    15     8    25 1   
    16     9    10 1   
    17    10    11 1   
    18    10    20 2   
    19    11    12 1   
    20    12    13 ar  
    21    12    17 ar  
    22    13    14 ar  
    23    13    26 1   
    24    14    15 ar  
    25    14    27 1   
    26    15    16 ar  
    27    15    28 1   
    28    16    17 ar  
    29    16    29 1   
    30    17    18 1   
    31    18    19 2   
    32    18    20 1   
    33    20    30 1   
@<TRIPOS>SUBSTRUCTURE
     1 1V8         1 TEMP              0 ****  ****    0 ROOT
