@<TRIPOS>MOLECULE
1V8
   30    33     1     0     0
SMALL
No Charge or Current Charge


@<TRIPOS>ATOM
      1 CAI         -1.8150     0.6960     0.4600 ca         1 1V8      -0.057000
      2 CAH         -3.2100     0.6430     0.3540 ca         1 1V8       0.042100
      3 OAK         -4.0720     1.6270     0.7170 os         1 1V8      -0.341100
      4 CAM         -5.3870     1.0240     0.4430 c5         1 1V8       0.374600
      5 OAL         -5.1990    -0.2940    -0.1870 os         1 1V8      -0.339100
      6 CAJ         -3.8510    -0.4480    -0.1590 ca         1 1V8       0.077100
      7 CAP         -3.1450    -1.5680    -0.6080 ca         1 1V8      -0.106000
      8 CAO         -1.7370    -1.5500    -0.5110 ca         1 1V8      -0.073000
      9 CAG         -1.0590    -0.4220     0.0290 ca         1 1V8      -0.077800
     10 CAA          0.4050    -0.3930     0.1240 cc         1 1V8       0.212900
     11 OAC          1.0360     0.8390     0.0580 os         1 1V8      -0.217200
     12 CAF          2.4210     0.8280    -0.0390 ca         1 1V8       0.152100
     13 CAR          3.0440     2.0530    -0.3400 ca         1 1V8      -0.141000
     14 CAT          4.4440     2.1460    -0.4260 ca         1 1V8      -0.057000
     15 CAS          5.2330     1.0070    -0.2030 ca         1 1V8      -0.147000
     16 CAQ          4.6230    -0.2200     0.1080 ca         1 1V8      -0.025000
     17 CAE          3.2170    -0.3080     0.1920 ca         1 1V8      -0.226600
     18 CAD          2.5490    -1.5830     0.5170 c          1 1V8       0.596900
     19 OAN          3.1570    -2.6020     0.8110 o          1 1V8      -0.542100
     20 CAB          1.1040    -1.5400     0.4330 cd         1 1V8      -0.389200
     21 H1          -1.3340     1.5790     0.8730 ha         1 1V8       0.148000
     22 H2          -5.9270     0.8950     1.3890 h2         1 1V8       0.068700
     23 H3          -5.9580     1.6750    -0.2290 h2         1 1V8       0.068700
     24 H4          -3.6690    -2.4260    -1.0230 ha         1 1V8       0.141000
     25 H5          -1.1750    -2.4090    -0.8720 ha         1 1V8       0.130000
     26 H6           2.4350     2.9380    -0.5060 ha         1 1V8       0.133000
     27 H7           4.9140     3.0980    -0.6630 ha         1 1V8       0.120000
     28 H8           6.3170     1.0750    -0.2670 ha         1 1V8       0.123000
     29 H9           5.2450    -1.0970     0.2830 ha         1 1V8       0.138000
     30 H10          0.6170    -2.4880     0.6140 ha         1 1V8       0.213000
@<TRIPOS>BOND
     1     1     2 ar  
     2     1     9 ar  
     3     1    21 1   
     4     2     3 1   
     5     2     6 ar  
     6     3     4 1   
     7     4     5 1   
     8     4    22 1   
     9     4    23 1   
    10     5     6 1   
    11     6     7 ar  
    12     7     8 ar  
    13     7    24 1   
    14     8     9 ar  
    15     8    25 1   
    16     9    10 1   
    17    10    11 1   
    18    10    20 2   
    19    11    12 1   
    20    12    13 ar  
    21    12    17 ar  
    22    13    14 ar  
    23    13    26 1   
    24    14    15 ar  
    25    14    27 1   
    26    15    16 ar  
    27    15    28 1   
    28    16    17 ar  
    29    16    29 1   
    30    17    18 1   
    31    18    19 2   
    32    18    20 1   
    33    20    30 1   
@<TRIPOS>SUBSTRUCTURE
     1 1V8         1 TEMP              0 ****  ****    0 ROOT
