@<TRIPOS>MOLECULE
1V9
   46    48     1     0     0
SMALL
No Charge or Current Charge


@<TRIPOS>ATOM
      1 CAI          5.6490    -0.0040    -1.2480 ca         1 1V9      -0.095500
      2 CAE          6.5470    -1.0310    -1.5890 ca         1 1V9      -0.110000
      3 CAD          6.5550    -2.2310    -0.8590 ca         1 1V9      -0.106000
      4 CAF          5.6620    -2.4040     0.2110 ca         1 1V9      -0.110000
      5 CAJ          4.7640    -1.3790     0.5540 ca         1 1V9      -0.095500
      6 CAT          4.7530    -0.1680    -0.1720 ca         1 1V9      -0.099300
      7 CAY          3.7780     0.9540     0.1860 c3         1 1V9       0.162000
      8 CAM          3.9520     1.4360     1.6480 c3         1 1V9      -0.088400
      9 CAA          3.1120     2.6780     2.0170 c3         1 1V9      -0.089100
     10 NAQ          2.4060     0.5220    -0.0820 ns         1 1V9      -0.503900
     11 CAS          1.4320     1.2970    -0.6690 c          1 1V9       0.596100
     12 OAB          1.6430     2.4320    -1.0690 o          1 1V9      -0.602100
     13 CAN          0.0670     0.6200    -0.8130 c3         1 1V9      -0.148400
     14 CAO         -0.9610     1.1900     0.2030 c3         1 1V9      -0.110700
     15 CAU         -2.3160     0.5400     0.1160 cc         1 1V9       0.505900
     16 NAP         -2.6510    -0.4590     0.9310 nd         1 1V9      -0.639100
     17 CAW         -3.9440    -0.9720     0.7210 ca         1 1V9       0.189400
     18 CAK         -4.3670    -2.0280     1.5480 ca         1 1V9      -0.107000
     19 CAG         -5.6440    -2.5960     1.4020 ca         1 1V9      -0.074000
     20 CAH         -6.5170    -2.1070     0.4180 ca         1 1V9      -0.134000
     21 CAL         -6.1110    -1.0540    -0.4170 ca         1 1V9      -0.039000
     22 CAX         -4.8270    -0.4870    -0.2650 ca         1 1V9      -0.204600
     23 CAV         -4.3740     0.6260    -1.1350 c          1 1V9       0.579600
     24 OAC         -5.0510     1.1240    -2.0210 o          1 1V9      -0.536000
     25 NAR         -3.1230     1.0560    -0.8630 ns         1 1V9      -0.431400
     26 H1           5.6520     0.9190    -1.8230 ha         1 1V9       0.109500
     27 H2           7.2360    -0.8960    -2.4200 ha         1 1V9       0.112500
     28 H3           7.2500    -3.0250    -1.1240 ha         1 1V9       0.112000
     29 H4           5.6660    -3.3340     0.7760 ha         1 1V9       0.112500
     30 H5           4.0760    -1.5300     1.3820 ha         1 1V9       0.109500
     31 H6           4.0030     1.8090    -0.4670 h1         1 1V9       0.076700
     32 H7           3.7010     0.6230     2.3400 hc         1 1V9       0.050200
     33 H8           5.0100     1.6730     1.8130 hc         1 1V9       0.050200
     34 H9           3.3420     3.0020     3.0390 hc         1 1V9       0.035700
     35 H10          3.3310     3.5100     1.3370 hc         1 1V9       0.035700
     36 H11          2.0390     2.4580     1.9660 hc         1 1V9       0.035700
     37 H12          2.1400    -0.4140     0.1950 hn         1 1V9       0.313500
     38 H13         -0.3050     0.8000    -1.8290 hc         1 1V9       0.075200
     39 H14          0.1630    -0.4590    -0.6410 hc         1 1V9       0.075200
     40 H15         -0.5650     1.0600     1.2180 hc         1 1V9       0.076200
     41 H16         -1.0580     2.2730     0.0570 hc         1 1V9       0.076200
     42 H17         -3.6960    -2.4120     2.3130 ha         1 1V9       0.131000
     43 H18         -5.9550    -3.4120     2.0500 ha         1 1V9       0.117000
     44 H19         -7.5060    -2.5440     0.3010 ha         1 1V9       0.120000
     45 H20         -6.7940    -0.6800    -1.1780 ha         1 1V9       0.136000
     46 H21         -2.7790     1.8120    -1.4360 hn         1 1V9       0.330500
@<TRIPOS>BOND
     1     1     2 ar  
     2     1     6 ar  
     3     1    26 1   
     4     2     3 ar  
     5     2    27 1   
     6     3     4 ar  
     7     3    28 1   
     8     4     5 ar  
     9     4    29 1   
    10     5     6 ar  
    11     5    30 1   
    12     6     7 1   
    13     7     8 1   
    14     7    10 1   
    15     7    31 1   
    16     8     9 1   
    17     8    32 1   
    18     8    33 1   
    19     9    34 1   
    20     9    35 1   
    21     9    36 1   
    22    10    11 1   
    23    10    37 1   
    24    11    12 2   
    25    11    13 1   
    26    13    14 1   
    27    13    38 1   
    28    13    39 1   
    29    14    15 1   
    30    14    40 1   
    31    14    41 1   
    32    15    16 2   
    33    15    25 1   
    34    16    17 1   
    35    17    18 ar  
    36    17    22 ar  
    37    18    19 ar  
    38    18    42 1   
    39    19    20 ar  
    40    19    43 1   
    41    20    21 ar  
    42    20    44 1   
    43    21    22 ar  
    44    21    45 1   
    45    22    23 1   
    46    23    24 2   
    47    23    25 1   
    48    25    46 1   
@<TRIPOS>SUBSTRUCTURE
     1 1V9         1 TEMP              0 ****  ****    0 ROOT
