@<TRIPOS>MOLECULE
1V9
   46    48     1     0     0
SMALL
abcg2


@<TRIPOS>ATOM
      1 CAI          5.5270     0.2250    -1.0530 ca         1 1V9      -0.095500
      2 CAE          6.3010    -0.7990    -1.5840 ca         1 1V9      -0.110000
      3 CAD          6.1040    -2.1080    -1.1640 ca         1 1V9      -0.106000
      4 CAF          5.1300    -2.3840    -0.2120 ca         1 1V9      -0.110000
      5 CAJ          4.3610    -1.3570     0.3170 ca         1 1V9      -0.095500
      6 CAT          4.5520    -0.0420    -0.0980 ca         1 1V9      -0.099300
      7 CAY          3.7640     1.0960     0.5150 c3         1 1V9       0.162000
      8 CAM          4.3680     1.5140     1.8590 c3         1 1V9      -0.088400
      9 CAA          3.7280     2.7630     2.4500 c3         1 1V9      -0.089100
     10 NAQ          2.3660     0.7650     0.6910 ns         1 1V9      -0.503900
     11 CAS          1.4920     0.7280    -0.3290 c          1 1V9       0.596100
     12 OAB          1.7980     1.0380    -1.4710 o          1 1V9      -0.602100
     13 CAN          0.1030     0.2480     0.0350 c3         1 1V9      -0.148400
     14 CAO         -0.9670     1.0050    -0.7300 c3         1 1V9      -0.110700
     15 CAU         -2.3460     0.4640    -0.5170 cc         1 1V9       0.505900
     16 NAP         -2.5460    -0.6680     0.0540 nd         1 1V9      -0.639100
     17 CAW         -3.8430    -1.1100     0.1760 ca         1 1V9       0.189400
     18 CAK         -4.0750    -2.3500     0.7870 ca         1 1V9      -0.107000
     19 CAG         -5.3620    -2.8240     0.9240 ca         1 1V9      -0.074000
     20 CAH         -6.4520    -2.0800     0.4610 ca         1 1V9      -0.134000
     21 CAL         -6.2410    -0.8590    -0.1410 ca         1 1V9      -0.039000
     22 CAX         -4.9400    -0.3680    -0.2890 ca         1 1V9      -0.204600
     23 CAV         -4.6970     0.9190    -0.9280 c          1 1V9       0.579600
     24 OAC         -5.5530     1.6630    -1.3730 o          1 1V9      -0.536000
     25 NAR         -3.3610     1.2440    -0.9930 ns         1 1V9      -0.431400
     26 H1           5.6830     1.2450    -1.3880 ha         1 1V9       0.109500
     27 H2           7.0520    -0.5770    -2.3310 ha         1 1V9       0.112500
     28 H3           6.7060    -2.9080    -1.5750 ha         1 1V9       0.112000
     29 H4           4.9700    -3.4010     0.1200 ha         1 1V9       0.112500
     30 H5           3.6010    -1.5850     1.0550 ha         1 1V9       0.109500
     31 H6           3.8220     1.9540    -0.1610 h1         1 1V9       0.076700
     32 H7           4.2970     0.6780     2.5630 hc         1 1V9       0.050200
     33 H8           5.4340     1.6890     1.7010 hc         1 1V9       0.050200
     34 H9           4.2490     3.0660     3.3580 hc         1 1V9       0.035700
     35 H10          3.7730     3.5960     1.7470 hc         1 1V9       0.035700
     36 H11          2.6810     2.6070     2.7120 hc         1 1V9       0.035700
     37 H12          2.0560     0.4680     1.6030 hn         1 1V9       0.313500
     38 H13          0.0500    -0.8170    -0.2030 hc         1 1V9       0.075200
     39 H14         -0.0670     0.3290     1.1100 hc         1 1V9       0.075200
     40 H15         -0.9560     2.0630    -0.4510 hc         1 1V9       0.076200
     41 H16         -0.7590     0.9760    -1.8030 hc         1 1V9       0.076200
     42 H17         -3.2280    -2.9220     1.1430 ha         1 1V9       0.131000
     43 H18         -5.5310    -3.7830     1.3970 ha         1 1V9       0.117000
     44 H19         -7.4570    -2.4630     0.5760 ha         1 1V9       0.120000
     45 H20         -7.0770    -0.2740    -0.5020 ha         1 1V9       0.136000
     46 H21         -3.1270     2.1260    -1.4320 hn         1 1V9       0.330500
@<TRIPOS>BOND
     1     1     2 ar  
     2     1     6 ar  
     3     1    26 1   
     4     2     3 ar  
     5     2    27 1   
     6     3     4 ar  
     7     3    28 1   
     8     4     5 ar  
     9     4    29 1   
    10     5     6 ar  
    11     5    30 1   
    12     6     7 1   
    13     7     8 1   
    14     7    10 1   
    15     7    31 1   
    16     8     9 1   
    17     8    32 1   
    18     8    33 1   
    19     9    34 1   
    20     9    35 1   
    21     9    36 1   
    22    10    11 1   
    23    10    37 1   
    24    11    12 2   
    25    11    13 1   
    26    13    14 1   
    27    13    38 1   
    28    13    39 1   
    29    14    15 1   
    30    14    40 1   
    31    14    41 1   
    32    15    16 2   
    33    15    25 1   
    34    16    17 1   
    35    17    18 ar  
    36    17    22 ar  
    37    18    19 ar  
    38    18    42 1   
    39    19    20 ar  
    40    19    43 1   
    41    20    21 ar  
    42    20    44 1   
    43    21    22 ar  
    44    21    45 1   
    45    22    23 1   
    46    23    24 2   
    47    23    25 1   
    48    25    46 1   
@<TRIPOS>SUBSTRUCTURE
     1 1V9         1 TEMP              0 ****  ****    0 ROOT
