@<TRIPOS>MOLECULE
1VA
   47    49     1     0     0
SMALL
No Charge or Current Charge


@<TRIPOS>ATOM
      1 CAI          4.1280     2.0510     0.8190 ca         1 1VA      -0.103500
      2 CAE          4.1410     3.3130     0.1990 ca         1 1VA      -0.107000
      3 CAD          4.7380     3.4710    -1.0620 ca         1 1VA      -0.107000
      4 CAF          5.3230     2.3670    -1.7040 ca         1 1VA      -0.107000
      5 CAJ          5.3100     1.1050    -1.0850 ca         1 1VA      -0.103500
      6 CAU          4.7110     0.9390     0.1800 ca         1 1VA      -0.081300
      7 CAP          4.6920    -0.4350     0.8450 c3         1 1VA      -0.049100
      8 CAZ          3.7330    -1.4300     0.1450 c3         1 1VA       0.112700
      9 CAM          3.7420    -2.8440     0.7950 c3         1 1VA       0.149600
     10 OAC          3.2070    -2.8150     2.1310 oh         1 1VA      -0.669000
     11 NAR          2.3750    -0.8730     0.0600 ns         1 1VA      -0.497900
     12 CAT          1.4490    -1.2040    -0.9010 c          1 1VA       0.601100
     13 OAA          1.6960    -1.9870    -1.8070 o          1 1VA      -0.609100
     14 CAN          0.0990    -0.4940    -0.7750 c3         1 1VA      -0.150400
     15 CAO         -1.0090    -1.4570    -0.2690 c3         1 1VA      -0.108700
     16 CAV         -2.3540    -0.7980    -0.1120 cc         1 1VA       0.506900
     17 NAQ         -2.7570    -0.3370     1.0710 nd         1 1VA      -0.640100
     18 CAX         -4.0280     0.2640     1.0570 ca         1 1VA       0.189400
     19 CAK         -4.5210     0.7720     2.2730 ca         1 1VA      -0.107000
     20 CAG         -5.7820     1.3880     2.3430 ca         1 1VA      -0.074000
     21 CAH         -6.5680     1.5020     1.1870 ca         1 1VA      -0.135000
     22 CAL         -6.0920     1.0010    -0.0350 ca         1 1VA      -0.039000
     23 CAY         -4.8250     0.3830    -0.1000 ca         1 1VA      -0.204600
     24 CAW         -4.3000    -0.1530    -1.3790 c          1 1VA       0.578600
     25 OAB         -4.8990    -0.1050    -2.4420 o          1 1VA      -0.537000
     26 NAS         -3.0740    -0.7130    -1.2730 ns         1 1VA      -0.431400
     27 H1           3.6620     1.9400     1.7950 ha         1 1VA       0.108000
     28 H2           3.6870     4.1670     0.6970 ha         1 1VA       0.112000
     29 H3           4.7480     4.4480    -1.5420 ha         1 1VA       0.112000
     30 H4           5.7870     2.4880    -2.6810 ha         1 1VA       0.112000
     31 H5           5.7660     0.2560    -1.5890 ha         1 1VA       0.108000
     32 H6           5.7040    -0.8570     0.8420 hc         1 1VA       0.058200
     33 H7           4.4070    -0.3400     1.9000 hc         1 1VA       0.058200
     34 H8           4.1010    -1.5550    -0.8830 h1         1 1VA       0.086700
     35 H9           3.1490    -3.5240     0.1690 h1         1 1VA       0.030700
     36 H10          4.7720    -3.2240     0.8060 h1         1 1VA       0.030700
     37 H11          3.2220    -3.7390     2.4670 ho         1 1VA       0.447000
     38 H12          2.0800    -0.2220     0.7760 hn         1 1VA       0.320500
     39 H13          0.1800     0.3420    -0.0700 hc         1 1VA       0.076700
     40 H14         -0.1860    -0.1150    -1.7630 hc         1 1VA       0.076700
     41 H15         -1.0920    -2.3110    -0.9530 hc         1 1VA       0.076700
     42 H16         -0.7000    -1.8780     0.6960 hc         1 1VA       0.076700
     43 H17         -3.9170     0.6880     3.1730 ha         1 1VA       0.130000
     44 H18         -6.1480     1.7750     3.2920 ha         1 1VA       0.117000
     45 H19         -7.5450     1.9780     1.2360 ha         1 1VA       0.120000
     46 H20         -6.7080     1.0940    -0.9290 ha         1 1VA       0.135000
     47 H21         -2.6830    -1.0870    -2.1240 hn         1 1VA       0.331500
@<TRIPOS>BOND
     1     1     2 ar  
     2     1     6 ar  
     3     1    27 1   
     4     2     3 ar  
     5     2    28 1   
     6     3     4 ar  
     7     3    29 1   
     8     4     5 ar  
     9     4    30 1   
    10     5     6 ar  
    11     5    31 1   
    12     6     7 1   
    13     7     8 1   
    14     7    32 1   
    15     7    33 1   
    16     8     9 1   
    17     8    11 1   
    18     8    34 1   
    19     9    10 1   
    20     9    35 1   
    21     9    36 1   
    22    10    37 1   
    23    11    12 1   
    24    11    38 1   
    25    12    13 2   
    26    12    14 1   
    27    14    15 1   
    28    14    39 1   
    29    14    40 1   
    30    15    16 1   
    31    15    41 1   
    32    15    42 1   
    33    16    17 2   
    34    16    26 1   
    35    17    18 1   
    36    18    19 ar  
    37    18    23 ar  
    38    19    20 ar  
    39    19    43 1   
    40    20    21 ar  
    41    20    44 1   
    42    21    22 ar  
    43    21    45 1   
    44    22    23 ar  
    45    22    46 1   
    46    23    24 1   
    47    24    25 2   
    48    24    26 1   
    49    26    47 1   
@<TRIPOS>SUBSTRUCTURE
     1 1VA         1 TEMP              0 ****  ****    0 ROOT
