@<TRIPOS>MOLECULE
1VA
   47    49     1     0     0
SMALL
abcg2


@<TRIPOS>ATOM
      1 CAI          3.2730     1.6410     0.6660 ca         1 1VA      -0.103500
      2 CAE          2.8330     2.7380    -0.0650 ca         1 1VA      -0.107000
      3 CAD          3.3640     2.9950    -1.3220 ca         1 1VA      -0.107000
      4 CAF          4.3370     2.1480    -1.8400 ca         1 1VA      -0.107000
      5 CAJ          4.7670     1.0520    -1.1070 ca         1 1VA      -0.103500
      6 CAU          4.2420     0.7820     0.1550 ca         1 1VA      -0.081300
      7 CAP          4.6690    -0.4400     0.9150 c3         1 1VA      -0.049100
      8 CAZ          3.9020    -1.6930     0.4590 c3         1 1VA       0.112700
      9 CAM          4.3460    -2.9430     1.1990 c3         1 1VA       0.149600
     10 OAC          4.0500    -2.7930     2.5690 oh         1 1VA      -0.669000
     11 NAR          2.4750    -1.4980     0.5990 ns         1 1VA      -0.497900
     12 CAT          1.6520    -1.1810    -0.4180 c          1 1VA       0.601100
     13 OAA          1.9820    -1.2310    -1.5940 o          1 1VA      -0.609100
     14 CAN          0.2750    -0.7290     0.0200 c3         1 1VA      -0.150400
     15 CAO         -0.7650    -0.9070    -1.0690 c3         1 1VA      -0.108700
     16 CAV         -2.1140    -0.3810    -0.6920 cc         1 1VA       0.506900
     17 NAQ         -2.3080     0.2690     0.3980 nd         1 1VA      -0.640100
     18 CAX         -3.5770     0.7350     0.6560 ca         1 1VA       0.189400
     19 CAK         -3.8020     1.4510     1.8390 ca         1 1VA      -0.107000
     20 CAG         -5.0600     1.9350     2.1280 ca         1 1VA      -0.074000
     21 CAH         -6.1280     1.7180     1.2510 ca         1 1VA      -0.135000
     22 CAL         -5.9240     1.0150     0.0840 ca         1 1VA      -0.039000
     23 CAY         -4.6520     0.5210    -0.2200 ca         1 1VA      -0.204600
     24 CAW         -4.4170    -0.2240    -1.4510 c          1 1VA       0.578600
     25 OAB         -5.2570    -0.4850    -2.2940 o          1 1VA      -0.537000
     26 NAS         -3.1100    -0.6300    -1.5930 ns         1 1VA      -0.431400
     27 H1           2.8560     1.4520     1.6480 ha         1 1VA       0.108000
     28 H2           2.0780     3.3930     0.3510 ha         1 1VA       0.112000
     29 H3           3.0250     3.8500    -1.8930 ha         1 1VA       0.112000
     30 H4           4.7590     2.3420    -2.8170 ha         1 1VA       0.112000
     31 H5           5.5220     0.3940    -1.5230 ha         1 1VA       0.108000
     32 H6           5.7380    -0.6210     0.7700 hc         1 1VA       0.058200
     33 H7           4.5140    -0.2900     1.9860 hc         1 1VA       0.058200
     34 H8           4.1050    -1.8620    -0.6000 h1         1 1VA       0.086700
     35 H9           3.8300    -3.8080     0.7670 h1         1 1VA       0.030700
     36 H10          5.4200    -3.0850     1.0270 h1         1 1VA       0.030700
     37 H11          4.3170    -3.5950     3.0270 ho         1 1VA       0.447000
     38 H12          2.1200    -1.4060     1.5390 hn         1 1VA       0.320500
     39 H13         -0.0270    -1.2530     0.9290 hc         1 1VA       0.076700
     40 H14          0.3570     0.3260     0.2950 hc         1 1VA       0.076700
     41 H15         -0.4480    -0.4010    -1.9850 hc         1 1VA       0.076700
     42 H16         -0.8680    -1.9640    -1.3310 hc         1 1VA       0.076700
     43 H17         -2.9720     1.6180     2.5130 ha         1 1VA       0.130000
     44 H18         -5.2220     2.4900     3.0430 ha         1 1VA       0.117000
     45 H19         -7.1100     2.1030     1.4890 ha         1 1VA       0.120000
     46 H20         -6.7430     0.8410    -0.6020 ha         1 1VA       0.135000
     47 H21         -2.8830    -1.1520    -2.4300 hn         1 1VA       0.331500
@<TRIPOS>BOND
     1     1     2 ar  
     2     1     6 ar  
     3     1    27 1   
     4     2     3 ar  
     5     2    28 1   
     6     3     4 ar  
     7     3    29 1   
     8     4     5 ar  
     9     4    30 1   
    10     5     6 ar  
    11     5    31 1   
    12     6     7 1   
    13     7     8 1   
    14     7    32 1   
    15     7    33 1   
    16     8     9 1   
    17     8    11 1   
    18     8    34 1   
    19     9    10 1   
    20     9    35 1   
    21     9    36 1   
    22    10    37 1   
    23    11    12 1   
    24    11    38 1   
    25    12    13 2   
    26    12    14 1   
    27    14    15 1   
    28    14    39 1   
    29    14    40 1   
    30    15    16 1   
    31    15    41 1   
    32    15    42 1   
    33    16    17 2   
    34    16    26 1   
    35    17    18 1   
    36    18    19 ar  
    37    18    23 ar  
    38    19    20 ar  
    39    19    43 1   
    40    20    21 ar  
    41    20    44 1   
    42    21    22 ar  
    43    21    45 1   
    44    22    23 ar  
    45    22    46 1   
    46    23    24 1   
    47    24    25 2   
    48    24    26 1   
    49    26    47 1   
@<TRIPOS>SUBSTRUCTURE
     1 1VA         1 TEMP              0 ****  ****    0 ROOT
