@<TRIPOS>MOLECULE
1VB
   48    50     1     0     0
SMALL
abcg2


@<TRIPOS>ATOM
      1 CAI          3.7850     1.9440    -0.3810 ca         1 1VB      -0.116500
      2 CAK          4.7760     1.1040    -0.8660 ca         1 1VB      -0.009000
      3 CAV          4.8750    -0.1800    -0.3550 ca         1 1VB      -0.268500
      4 SBB          6.1170    -1.2800    -0.9650 sy         1 1VB       1.125600
      5 OAE          5.6040    -2.6430    -0.9640 o          1 1VB      -0.543000
      6 OAF          6.6230    -0.7350    -2.2180 o          1 1VB      -0.543000
      7 NAB          7.2300    -1.2200     0.2550 n8         1 1VB      -1.005100
      8 CAL          4.0010    -0.6320     0.6270 ca         1 1VB      -0.009000
      9 CAJ          3.0180     0.2190     1.0970 ca         1 1VB      -0.116500
     10 CAU          2.9010     1.5150     0.5990 ca         1 1VB      -0.040300
     11 CBA          1.8550     2.4610     1.1480 c3         1 1VB       0.157000
     12 CAA          2.2590     2.9660     2.5280 c3         1 1VB      -0.105100
     13 NAR          0.5520     1.8340     1.2270 ns         1 1VB      -0.509900
     14 CAT         -0.1550     1.5140     0.1300 c          1 1VB       0.595100
     15 OAC          0.2370     1.7770    -0.9980 o          1 1VB      -0.598100
     16 CAO         -1.4530     0.7780     0.3860 c3         1 1VB      -0.145400
     17 CAP         -2.5430     1.2340    -0.5670 c3         1 1VB      -0.111700
     18 CAW         -3.8010     0.4310    -0.4670 cc         1 1VB       0.505900
     19 NAQ         -3.8640    -0.6430     0.2330 nd         1 1VB      -0.638100
     20 CAY         -5.0530    -1.3360     0.2440 ca         1 1VB       0.188400
     21 CAM         -5.1370    -2.5140     1.0000 ca         1 1VB      -0.106000
     22 CAG         -6.3110    -3.2350     1.0310 ca         1 1VB      -0.074000
     23 CAH         -7.4340    -2.8050     0.3150 ca         1 1VB      -0.133000
     24 CAN         -7.3690    -1.6490    -0.4310 ca         1 1VB      -0.039000
     25 CAZ         -6.1830    -0.9100    -0.4710 ca         1 1VB      -0.203600
     26 CAX         -6.0960     0.3170    -1.2540 c          1 1VB       0.578600
     27 OAD         -6.9970     0.8020    -1.9150 o          1 1VB      -0.535000
     28 NAS         -4.8580     0.9130    -1.1840 ns         1 1VB      -0.431400
     29 H1           3.6990     2.9470    -0.7810 ha         1 1VB       0.118500
     30 H2           5.4490     1.4520    -1.6380 ha         1 1VB       0.137000
     31 H3           7.7620    -0.3560     0.2600 hn         1 1VB       0.472500
     32 H4           7.8560    -2.0190     0.2260 hn         1 1VB       0.472500
     33 H5           4.0790    -1.6360     1.0220 ha         1 1VB       0.137000
     34 H6           2.3320    -0.1380     1.8560 ha         1 1VB       0.118500
     35 H7           1.7870     3.3180     0.4720 h1         1 1VB       0.075700
     36 H8           1.5360     3.6930     2.9000 hc         1 1VB       0.047367
     37 H9           2.3270     2.1480     3.2470 hc         1 1VB       0.047367
     38 H10          3.2330     3.4520     2.4810 hc         1 1VB       0.047367
     39 H11          0.1860     1.5980     2.1350 hn         1 1VB       0.317500
     40 H12         -1.2580    -0.2880     0.2470 hc         1 1VB       0.076700
     41 H13         -1.7750     0.9000     1.4210 hc         1 1VB       0.076700
     42 H14         -2.7860     2.2860    -0.3890 hc         1 1VB       0.076200
     43 H15         -2.1890     1.1790    -1.6010 hc         1 1VB       0.076200
     44 H16         -4.2670    -2.8420     1.5530 ha         1 1VB       0.131000
     45 H17         -6.3650    -4.1440     1.6170 ha         1 1VB       0.117000
     46 H18         -8.3500    -3.3800     0.3500 ha         1 1VB       0.120000
     47 H19         -8.2300    -1.3080    -0.9900 ha         1 1VB       0.136000
     48 H20         -4.7350     1.7710    -1.7080 hn         1 1VB       0.330500
@<TRIPOS>BOND
     1     1     2 ar  
     2     1    10 ar  
     3     1    29 1   
     4     2     3 ar  
     5     2    30 1   
     6     3     4 1   
     7     3     8 ar  
     8     4     5 2   
     9     4     6 2   
    10     4     7 1   
    11     7    31 1   
    12     7    32 1   
    13     8     9 ar  
    14     8    33 1   
    15     9    10 ar  
    16     9    34 1   
    17    10    11 1   
    18    11    12 1   
    19    11    13 1   
    20    11    35 1   
    21    12    36 1   
    22    12    37 1   
    23    12    38 1   
    24    13    14 1   
    25    13    39 1   
    26    14    15 2   
    27    14    16 1   
    28    16    17 1   
    29    16    40 1   
    30    16    41 1   
    31    17    18 1   
    32    17    42 1   
    33    17    43 1   
    34    18    19 2   
    35    18    28 1   
    36    19    20 1   
    37    20    21 ar  
    38    20    25 ar  
    39    21    22 ar  
    40    21    44 1   
    41    22    23 ar  
    42    22    45 1   
    43    23    24 ar  
    44    23    46 1   
    45    24    25 ar  
    46    24    47 1   
    47    25    26 1   
    48    26    27 2   
    49    26    28 1   
    50    28    48 1   
@<TRIPOS>SUBSTRUCTURE
     1 1VB         1 TEMP              0 ****  ****    0 ROOT
