@<TRIPOS>MOLECULE
1VB
   48    50     1     0     0
SMALL
No Charge or Current Charge


@<TRIPOS>ATOM
      1 CAI          4.0330     1.4460    -0.8030 ca         1 1VB      -0.116500
      2 CAK          5.1080     0.5450    -0.9010 ca         1 1VB      -0.009000
      3 CAV          5.2250    -0.5160     0.0200 ca         1 1VB      -0.268500
      4 SBB          6.5950    -1.6710    -0.0960 sy         1 1VB       1.125600
      5 OAE          6.2420    -2.9510     0.5190 o          1 1VB      -0.543000
      6 OAF          7.2290    -1.5680    -1.4080 o          1 1VB      -0.543000
      7 NAB          7.6880    -0.9980     0.9190 n8         1 1VB      -1.005100
      8 CAL          4.2600    -0.6660     1.0360 ca         1 1VB      -0.009000
      9 CAJ          3.1880     0.2380     1.1280 ca         1 1VB      -0.116500
     10 CAU          3.0670     1.3040     0.2130 ca         1 1VB      -0.040300
     11 CBA          1.9020     2.2880     0.3030 c3         1 1VB       0.157000
     12 CAA          1.8430     3.0030     1.6690 c3         1 1VB      -0.105100
     13 NAR          0.6410     1.6090     0.0070 ns         1 1VB      -0.509900
     14 CAT         -0.5110     2.2330    -0.4140 c          1 1VB       0.595100
     15 OAC         -0.5690     3.4370    -0.6160 o          1 1VB      -0.598100
     16 CAO         -1.7050     1.3040    -0.6480 c3         1 1VB      -0.145400
     17 CAP         -2.7770     1.4590     0.4650 c3         1 1VB      -0.111700
     18 CAW         -3.9640     0.5500     0.2890 cc         1 1VB       0.505900
     19 NAQ         -4.0300    -0.6210     0.9200 nd         1 1VB      -0.638100
     20 CAY         -5.1920    -1.3640     0.6450 ca         1 1VB       0.188400
     21 CAM         -5.3310    -2.6120     1.2800 ca         1 1VB      -0.106000
     22 CAG         -6.4630    -3.4160     1.0570 ca         1 1VB      -0.074000
     23 CAH         -7.4730    -2.9740     0.1900 ca         1 1VB      -0.133000
     24 CAN         -7.3510    -1.7310    -0.4520 ca         1 1VB      -0.039000
     25 CAZ         -6.2120    -0.9280    -0.2250 ca         1 1VB      -0.203600
     26 CAX         -6.0590     0.3870    -0.8920 c          1 1VB       0.578600
     27 OAD         -6.8750     0.8650    -1.6640 o          1 1VB      -0.535000
     28 NAS         -4.9150     1.0320    -0.5700 ns         1 1VB      -0.431400
     29 H1           3.9540     2.2580    -1.5220 ha         1 1VB       0.118500
     30 H2           5.8410     0.6770    -1.6960 ha         1 1VB       0.137000
     31 H3           7.3750    -0.0320     0.9630 hn         1 1VB       0.472500
     32 H4           8.5090    -0.9610     0.3190 hn         1 1VB       0.472500
     33 H5           4.3350    -1.4810     1.7550 ha         1 1VB       0.137000
     34 H6           2.4500     0.1050     1.9150 ha         1 1VB       0.118500
     35 H7           2.0510     3.0610    -0.4640 h1         1 1VB       0.075700
     36 H8           1.0620     3.7730     1.6710 hc         1 1VB       0.047367
     37 H9           1.6260     2.2960     2.4780 hc         1 1VB       0.047367
     38 H10          2.8000     3.4920     1.8850 hc         1 1VB       0.047367
     39 H11          0.6010     0.6040     0.1260 hn         1 1VB       0.317500
     40 H12         -2.1590     1.5600    -1.6130 hc         1 1VB       0.076700
     41 H13         -1.3710     0.2600    -0.6640 hc         1 1VB       0.076700
     42 H14         -2.3110     1.2560     1.4370 hc         1 1VB       0.076200
     43 H15         -3.1120     2.5030     0.5080 hc         1 1VB       0.076200
     44 H16         -4.5520    -2.9610     1.9530 ha         1 1VB       0.131000
     45 H17         -6.5540    -4.3780     1.5570 ha         1 1VB       0.117000
     46 H18         -8.3510    -3.5930     0.0150 ha         1 1VB       0.120000
     47 H19         -8.1390    -1.3950    -1.1230 ha         1 1VB       0.136000
     48 H20         -4.7750     1.9310    -1.0070 hn         1 1VB       0.330500
@<TRIPOS>BOND
     1     1     2 ar  
     2     1    10 ar  
     3     1    29 1   
     4     2     3 ar  
     5     2    30 1   
     6     3     4 1   
     7     3     8 ar  
     8     4     5 2   
     9     4     6 2   
    10     4     7 1   
    11     7    31 1   
    12     7    32 1   
    13     8     9 ar  
    14     8    33 1   
    15     9    10 ar  
    16     9    34 1   
    17    10    11 1   
    18    11    12 1   
    19    11    13 1   
    20    11    35 1   
    21    12    36 1   
    22    12    37 1   
    23    12    38 1   
    24    13    14 1   
    25    13    39 1   
    26    14    15 2   
    27    14    16 1   
    28    16    17 1   
    29    16    40 1   
    30    16    41 1   
    31    17    18 1   
    32    17    42 1   
    33    17    43 1   
    34    18    19 2   
    35    18    28 1   
    36    19    20 1   
    37    20    21 ar  
    38    20    25 ar  
    39    21    22 ar  
    40    21    44 1   
    41    22    23 ar  
    42    22    45 1   
    43    23    24 ar  
    44    23    46 1   
    45    24    25 ar  
    46    24    47 1   
    47    25    26 1   
    48    26    27 2   
    49    26    28 1   
    50    28    48 1   
@<TRIPOS>SUBSTRUCTURE
     1 1VB         1 TEMP              0 ****  ****    0 ROOT
