@<TRIPOS>MOLECULE
1VC
   49    51     1     0     0
SMALL
No Charge or Current Charge


@<TRIPOS>ATOM
      1 CD1         -4.6710     2.0660     0.4830 ca         1 1VC      -0.104000
      2 CE1         -4.4040     3.4430     0.5770 ca         1 1VC      -0.106000
      3 CZ          -3.6320     4.0790    -0.4110 ca         1 1VC      -0.105000
      4 CE2         -3.1290     3.3370    -1.4930 ca         1 1VC      -0.106000
      5 CD2         -3.3980     1.9610    -1.5880 ca         1 1VC      -0.104000
      6 CG          -4.1700     1.3170    -0.5990 ca         1 1VC      -0.086300
      7 CB          -4.4530    -0.1780    -0.6940 c3         1 1VC      -0.037100
      8 CA          -3.5100    -1.0390     0.1840 c3         1 1VC       0.060700
      9 C           -3.8280    -2.5500     0.0420 c          1 1VC       0.573100
     10 O           -3.1020    -3.3570    -0.5280 o          1 1VC      -0.479000
     11 OAT         -4.9970    -2.8840     0.6800 os         1 1VC      -0.441100
     12 CAA         -5.4170    -4.2620     0.6500 c3         1 1VC       0.151900
     13 N           -2.0820    -0.7700    -0.1150 ns         1 1VC      -0.489900
     14 CAU         -1.2740     0.0850     0.6010 c          1 1VC       0.603100
     15 OAB         -1.6540     0.6560     1.6120 o          1 1VC      -0.604100
     16 CAN          0.1330     0.2800     0.0290 c3         1 1VC      -0.143400
     17 CAO          1.2100    -0.4350     0.8900 c3         1 1VC      -0.109700
     18 CAX          2.6150    -0.2310     0.3870 cc         1 1VC       0.506900
     19 NAQ          3.3860     0.7360     0.8810 nd         1 1VC      -0.640100
     20 CAZ          4.6660     0.8110     0.3030 ca         1 1VC       0.189400
     21 CAL          5.5360     1.8090     0.7780 ca         1 1VC      -0.107000
     22 CAH          6.8320     1.9500     0.2520 ca         1 1VC      -0.074000
     23 CAI          7.2710     1.0870    -0.7630 ca         1 1VC      -0.134000
     24 CAM          6.4150     0.0860    -1.2500 ca         1 1VC      -0.039000
     25 CBA          5.1150    -0.0520    -0.7180 ca         1 1VC      -0.203600
     26 CAY          4.1920    -1.1000    -1.2150 c          1 1VC       0.578600
     27 OAD          4.4720    -1.9010    -2.0930 o          1 1VC      -0.536000
     28 NAS          2.9870    -1.1000    -0.6040 ns         1 1VC      -0.431400
     29 H1          -5.2660     1.5810     1.2540 ha         1 1VC       0.111000
     30 H2          -4.7930     4.0160     1.4160 ha         1 1VC       0.114500
     31 H3          -3.4240     5.1440    -0.3370 ha         1 1VC       0.115000
     32 H4          -2.5310     3.8280    -2.2570 ha         1 1VC       0.114500
     33 H5          -3.0020     1.3940    -2.4270 ha         1 1VC       0.111000
     34 H6          -5.4920    -0.3760    -0.4010 hc         1 1VC       0.064200
     35 H7          -4.3680    -0.5110    -1.7360 hc         1 1VC       0.064200
     36 H8          -3.7040    -0.7910     1.2360 h1         1 1VC       0.103700
     37 H9          -6.3620    -4.3850     1.1930 h1         1 1VC       0.049700
     38 H10         -5.5710    -4.6010    -0.3830 h1         1 1VC       0.049700
     39 H11         -4.6670    -4.9110     1.1210 h1         1 1VC       0.049700
     40 H12         -1.6700    -1.2200    -0.9240 hn         1 1VC       0.323500
     41 H13          0.1790    -0.1110    -0.9950 hc         1 1VC       0.077700
     42 H14          0.3530     1.3540     0.0210 hc         1 1VC       0.077700
     43 H15          1.1440    -0.0660     1.9210 hc         1 1VC       0.078200
     44 H16          0.9840    -1.5070     0.9420 hc         1 1VC       0.078200
     45 H17          5.2030     2.4820     1.5640 ha         1 1VC       0.130000
     46 H18          7.4920     2.7270     0.6310 ha         1 1VC       0.116000
     47 H19          8.2730     1.1930    -1.1740 ha         1 1VC       0.120000
     48 H20          6.7630    -0.5800    -2.0380 ha         1 1VC       0.136000
     49 H21          2.3320    -1.8010    -0.9170 hn         1 1VC       0.331500
@<TRIPOS>BOND
     1     1     2 ar  
     2     1     6 ar  
     3     1    29 1   
     4     2     3 ar  
     5     2    30 1   
     6     3     4 ar  
     7     3    31 1   
     8     4     5 ar  
     9     4    32 1   
    10     5     6 ar  
    11     5    33 1   
    12     6     7 1   
    13     7     8 1   
    14     7    34 1   
    15     7    35 1   
    16     8     9 1   
    17     8    13 1   
    18     8    36 1   
    19     9    10 2   
    20     9    11 1   
    21    11    12 1   
    22    12    37 1   
    23    12    38 1   
    24    12    39 1   
    25    13    14 1   
    26    13    40 1   
    27    14    15 2   
    28    14    16 1   
    29    16    17 1   
    30    16    41 1   
    31    16    42 1   
    32    17    18 1   
    33    17    43 1   
    34    17    44 1   
    35    18    19 2   
    36    18    28 1   
    37    19    20 1   
    38    20    21 ar  
    39    20    25 ar  
    40    21    22 ar  
    41    21    45 1   
    42    22    23 ar  
    43    22    46 1   
    44    23    24 ar  
    45    23    47 1   
    46    24    25 ar  
    47    24    48 1   
    48    25    26 1   
    49    26    27 2   
    50    26    28 1   
    51    28    49 1   
@<TRIPOS>SUBSTRUCTURE
     1 1VC         1 TEMP              0 ****  ****    0 ROOT
