@<TRIPOS>MOLECULE
1VC
   49    51     1     0     0
SMALL
bcc


@<TRIPOS>ATOM
      1 CD1         -4.6870     2.1660     0.7160 ca         1 1VC      -0.122000
      2 CE1         -4.4730     3.4910     1.0700 ca         1 1VC      -0.124000
      3 CZ          -3.7480     4.3290     0.2320 ca         1 1VC      -0.123000
      4 CE2         -3.2440     3.8330    -0.9630 ca         1 1VC      -0.124000
      5 CD2         -3.4600     2.5060    -1.3130 ca         1 1VC      -0.122000
      6 CG          -4.1810     1.6570    -0.4780 ca         1 1VC      -0.086300
      7 CB          -4.3940     0.2110    -0.8340 c3         1 1VC      -0.037100
      8 CA          -3.4790    -0.7150    -0.0160 c3         1 1VC       0.060700
      9 C           -3.7820    -2.1750    -0.3300 c          1 1VC       0.622100
     10 O           -3.0830    -2.8890    -0.9990 o          1 1VC      -0.528000
     11 OAT         -4.9290    -2.5460     0.2120 os         1 1VC      -0.417900
     12 CAA         -5.3760    -3.8810    -0.0310 c3         1 1VC       0.128700
     13 N           -2.1010    -0.4160    -0.2790 ns         1 1VC      -0.556900
     14 CAU         -1.1150    -0.8250     0.5420 c          1 1VC       0.670100
     15 OAB         -1.3400    -1.4390     1.5730 o          1 1VC      -0.604100
     16 CAN          0.2760    -0.4140     0.1100 c3         1 1VC      -0.143400
     17 CAO          1.3480    -1.2670     0.7590 c3         1 1VC      -0.109700
     18 CAX          2.7380    -0.8280     0.4220 cc         1 1VC       0.506900
     19 NAQ          2.9670     0.2720    -0.1980 nd         1 1VC      -0.640100
     20 CAZ          4.2780     0.6120    -0.4460 ca         1 1VC       0.189400
     21 CAL          4.5440     1.8150    -1.1150 ca         1 1VC      -0.125000
     22 CAH          5.8440     2.1880    -1.3780 ca         1 1VC      -0.092000
     23 CAI          6.9140     1.3760    -0.9860 ca         1 1VC      -0.152000
     24 CAM          6.6700     0.1900    -0.3290 ca         1 1VC      -0.057000
     25 CBA          5.3550    -0.1970    -0.0540 ca         1 1VC      -0.203600
     26 CAY          5.0770    -1.4470     0.6430 c          1 1VC       0.721100
     27 OAD          5.9130    -2.2420     1.0340 o          1 1VC      -0.611500
     28 NAS          3.7320    -1.6690     0.8340 ns         1 1VC      -0.498400
     29 H1          -5.2610     1.5230     1.3740 ha         1 1VC       0.129000
     30 H2          -4.8780     3.8700     2.0000 ha         1 1VC       0.132500
     31 H3          -3.5820     5.3620     0.5050 ha         1 1VC       0.133000
     32 H4          -2.6810     4.4780    -1.6250 ha         1 1VC       0.132500
     33 H5          -3.0710     2.1330    -2.2530 ha         1 1VC       0.129000
     34 H6          -5.4310    -0.0700    -0.6430 hc         1 1VC       0.064200
     35 H7          -4.2130     0.0520    -1.9010 hc         1 1VC       0.064200
     36 H8          -3.6830    -0.5520     1.0460 h1         1 1VC       0.103700
     37 H9          -6.3220    -3.9790     0.4920 h1         1 1VC       0.049700
     38 H10         -5.5290    -4.0610    -1.0950 h1         1 1VC       0.049700
     39 H11         -4.6680    -4.6120     0.3590 h1         1 1VC       0.049700
     40 H12         -1.8570    -0.0220    -1.1730 hn         1 1VC       0.323500
     41 H13          0.3580    -0.4580    -0.9780 hc         1 1VC       0.077700
     42 H14          0.4110     0.6360     0.3800 hc         1 1VC       0.077700
     43 H15          1.2450    -1.2470     1.8480 hc         1 1VC       0.078200
     44 H16          1.2320    -2.3150     0.4680 hc         1 1VC       0.078200
     45 H17          3.7120     2.4390    -1.4150 ha         1 1VC       0.148000
     46 H18          6.0400     3.1180    -1.8950 ha         1 1VC       0.134000
     47 H19          7.9300     1.6820    -1.1970 ha         1 1VC       0.138000
     48 H20          7.4900    -0.4460    -0.0220 ha         1 1VC       0.154000
     49 H21          3.4750    -2.5220     1.3150 hn         1 1VC       0.331500
@<TRIPOS>BOND
     1     1     2 ar  
     2     1     6 ar  
     3     1    29 1   
     4     2     3 ar  
     5     2    30 1   
     6     3     4 ar  
     7     3    31 1   
     8     4     5 ar  
     9     4    32 1   
    10     5     6 ar  
    11     5    33 1   
    12     6     7 1   
    13     7     8 1   
    14     7    34 1   
    15     7    35 1   
    16     8     9 1   
    17     8    13 1   
    18     8    36 1   
    19     9    10 2   
    20     9    11 1   
    21    11    12 1   
    22    12    37 1   
    23    12    38 1   
    24    12    39 1   
    25    13    14 1   
    26    13    40 1   
    27    14    15 2   
    28    14    16 1   
    29    16    17 1   
    30    16    41 1   
    31    16    42 1   
    32    17    18 1   
    33    17    43 1   
    34    17    44 1   
    35    18    19 2   
    36    18    28 1   
    37    19    20 1   
    38    20    21 ar  
    39    20    25 ar  
    40    21    22 ar  
    41    21    45 1   
    42    22    23 ar  
    43    22    46 1   
    44    23    24 ar  
    45    23    47 1   
    46    24    25 ar  
    47    24    48 1   
    48    25    26 1   
    49    26    27 2   
    50    26    28 1   
    51    28    49 1   
@<TRIPOS>SUBSTRUCTURE
     1 1VC         1 TEMP              0 ****  ****    0 ROOT
