@<TRIPOS>MOLECULE
1VD
   50    53     1     0     0
SMALL
abcg2


@<TRIPOS>ATOM
      1 CAM          6.8880    -0.8470    -1.8700 cc         1 1VD      -0.220000
      2 CAF          7.8660    -1.7950    -1.8380 cd         1 1VD       0.230900
      3 NAQ          7.8860    -2.4170    -0.6200 nd         1 1VD      -0.670000
      4 CAN          6.9330    -1.8580     0.0730 cc         1 1VD       0.398400
      5 NBC          6.2890    -0.8960    -0.6360 na         1 1VD      -0.076300
      6 CAW          5.2210    -0.0950    -0.1810 ca         1 1VD       0.005800
      7 CAJ          5.1800     1.2560    -0.4980 ca         1 1VD      -0.116000
      8 CAH          4.1200     2.0310    -0.0540 ca         1 1VD      -0.080500
      9 CAI          4.2050    -0.6590     0.5820 ca         1 1VD      -0.116000
     10 CAG          3.1640     0.1340     1.0390 ca         1 1VD      -0.080500
     11 CAV          3.1050     1.4870     0.7230 ca         1 1VD      -0.092300
     12 CBB          2.0070     2.3800     1.2580 c3         1 1VD       0.166000
     13 CAA          2.3290     2.8330     2.6780 c3         1 1VD      -0.106100
     14 NAS          0.7130     1.7310     1.2510 ns         1 1VD      -0.510900
     15 CAU          0.0640     1.4200     0.1160 c          1 1VD       0.595100
     16 OAB          0.5080     1.6960    -0.9880 o          1 1VD      -0.599100
     17 CAO         -1.2440     0.6810     0.3080 c3         1 1VD      -0.146400
     18 CAP         -2.2610     1.0650    -0.7500 c3         1 1VD      -0.110700
     19 CAX         -3.5490     0.3120    -0.6400 cc         1 1VD       0.505900
     20 NAR         -3.7090    -0.6350     0.2110 nd         1 1VD      -0.639100
     21 CAZ         -4.9230    -1.2840     0.2340 ca         1 1VD       0.188400
     22 CAK         -5.1130    -2.3210     1.1580 ca         1 1VD      -0.107000
     23 CAD         -6.3150    -2.9910     1.2090 ca         1 1VD      -0.074000
     24 CAE         -7.3620    -2.6510     0.3450 ca         1 1VD      -0.133000
     25 CAL         -7.1910    -1.6350    -0.5700 ca         1 1VD      -0.039000
     26 CBA         -5.9750    -0.9470    -0.6310 ca         1 1VD      -0.203600
     27 CAY         -5.7770     0.1310    -1.5920 c          1 1VD       0.579600
     28 OAC         -6.6010     0.5230    -2.3980 o          1 1VD      -0.534000
     29 NAT         -4.5260     0.6980    -1.5130 ns         1 1VD      -0.432400
     30 H1           6.5560    -0.1790    -2.6470 h4         1 1VD       0.160000
     31 H2           8.5500    -2.0630    -2.6280 h4         1 1VD       0.039100
     32 H3           6.6730    -2.0860     1.0960 h5         1 1VD       0.055100
     33 H4           5.9720     1.7080    -1.0810 ha         1 1VD       0.127000
     34 H5           4.0920     3.0830    -0.3140 ha         1 1VD       0.118000
     35 H6           4.2150    -1.7180     0.8100 ha         1 1VD       0.127000
     36 H7           2.3800    -0.3240     1.6290 ha         1 1VD       0.118000
     37 H8           1.9540     3.2640     0.6180 h1         1 1VD       0.071700
     38 H9           1.5680     3.5190     3.0490 hc         1 1VD       0.047033
     39 H10          2.3900     1.9820     3.3590 hc         1 1VD       0.047033
     40 H11          3.2890     3.3470     2.6990 hc         1 1VD       0.047033
     41 H12          0.2920     1.4930     2.1360 hn         1 1VD       0.317500
     42 H13         -1.0300    -0.3900     0.2500 hc         1 1VD       0.075700
     43 H14         -1.6430     0.8590     1.3070 hc         1 1VD       0.075700
     44 H15         -2.4810     2.1360    -0.6940 hc         1 1VD       0.076700
     45 H16         -1.8530     0.8960    -1.7500 hc         1 1VD       0.076700
     46 H17         -4.3010    -2.5810     1.8240 ha         1 1VD       0.130000
     47 H18         -6.4500    -3.7910     1.9260 ha         1 1VD       0.117000
     48 H19         -8.3010    -3.1850     0.3950 ha         1 1VD       0.121000
     49 H20         -7.9930    -1.3630    -1.2440 ha         1 1VD       0.136000
     50 H21         -4.3300     1.4570    -2.1540 hn         1 1VD       0.330500
@<TRIPOS>BOND
     1     1     2 2   
     2     1     5 1   
     3     1    30 1   
     4     2     3 1   
     5     2    31 1   
     6     3     4 2   
     7     4     5 1   
     8     4    32 1   
     9     5     6 1   
    10     6     7 ar  
    11     6     9 ar  
    12     7     8 ar  
    13     7    33 1   
    14     8    11 ar  
    15     8    34 1   
    16     9    10 ar  
    17     9    35 1   
    18    10    11 ar  
    19    10    36 1   
    20    11    12 1   
    21    12    13 1   
    22    12    14 1   
    23    12    37 1   
    24    13    38 1   
    25    13    39 1   
    26    13    40 1   
    27    14    15 1   
    28    14    41 1   
    29    15    16 2   
    30    15    17 1   
    31    17    18 1   
    32    17    42 1   
    33    17    43 1   
    34    18    19 1   
    35    18    44 1   
    36    18    45 1   
    37    19    20 2   
    38    19    29 1   
    39    20    21 1   
    40    21    22 ar  
    41    21    26 ar  
    42    22    23 ar  
    43    22    46 1   
    44    23    24 ar  
    45    23    47 1   
    46    24    25 ar  
    47    24    48 1   
    48    25    26 ar  
    49    25    49 1   
    50    26    27 1   
    51    27    28 2   
    52    27    29 1   
    53    29    50 1   
@<TRIPOS>SUBSTRUCTURE
     1 1VD         1 TEMP              0 ****  ****    0 ROOT
