@<TRIPOS>MOLECULE
1VD
   50    53     1     0     0
SMALL
No Charge or Current Charge


@<TRIPOS>ATOM
      1 CAM          7.1160    -1.5420    -1.3590 cc         1 1VD      -0.220000
      2 CAF          8.1280    -2.3940    -0.9850 cd         1 1VD       0.230900
      3 NAQ          8.1650    -2.5560     0.3930 nd         1 1VD      -0.670000
      4 CAN          7.1760    -1.8100     0.8760 cc         1 1VD       0.398400
      5 NBC          6.5300    -1.1890    -0.1680 na         1 1VD      -0.076300
      6 CAW          5.4430    -0.3180    -0.0340 ca         1 1VD       0.005800
      7 CAJ          5.2920     0.7770    -0.9080 ca         1 1VD      -0.116000
      8 CAH          4.2010     1.6540    -0.7730 ca         1 1VD      -0.080500
      9 CAI          4.4810    -0.5220     0.9770 ca         1 1VD      -0.116000
     10 CAG          3.3900     0.3550     1.1110 ca         1 1VD      -0.080500
     11 CAV          3.2430     1.4530     0.2390 ca         1 1VD      -0.092300
     12 CBB          2.0600     2.4090     0.3710 c3         1 1VD       0.166000
     13 CAA          1.9850     3.0590     1.7690 c3         1 1VD      -0.106100
     14 NAS          0.8160     1.7150     0.0420 ns         1 1VD      -0.510900
     15 CAU         -0.3510     2.3310    -0.3460 c          1 1VD       0.595100
     16 OAB         -0.4390     3.5420    -0.4860 o          1 1VD      -0.599100
     17 CAO         -1.5220     1.3860    -0.6280 c3         1 1VD      -0.146400
     18 CAP         -2.5950     1.4560     0.4920 c3         1 1VD      -0.110700
     19 CAX         -3.7590     0.5270     0.2700 cc         1 1VD       0.505900
     20 NAR         -3.7960    -0.6740     0.8440 nd         1 1VD      -0.639100
     21 CAZ         -4.9390    -1.4320     0.5320 ca         1 1VD       0.188400
     22 CAK         -5.0470    -2.7120     1.1060 ca         1 1VD      -0.107000
     23 CAD         -6.1570    -3.5320     0.8430 ca         1 1VD      -0.074000
     24 CAE         -7.1790    -3.0740    -0.0030 ca         1 1VD      -0.133000
     25 CAL         -7.0870    -1.8000    -0.5850 ca         1 1VD      -0.039000
     26 CBA         -5.9690    -0.9800    -0.3170 ca         1 1VD      -0.203600
     27 CAY         -5.8480     0.3690    -0.9200 c          1 1VD       0.579600
     28 OAC         -6.6760     0.8630    -1.6700 o          1 1VD      -0.534000
     29 NAT         -4.7220     1.0260    -0.5660 ns         1 1VD      -0.432400
     30 H1           6.7910    -1.1970    -2.3310 h4         1 1VD       0.160000
     31 H2           8.8340    -2.9010    -1.6330 h4         1 1VD       0.039100
     32 H3           6.9020    -1.6770     1.9160 h5         1 1VD       0.055100
     33 H4           6.0240     0.9630    -1.6900 ha         1 1VD       0.127000
     34 H5           4.1050     2.4940    -1.4580 ha         1 1VD       0.118000
     35 H6           4.5630    -1.3670     1.6570 ha         1 1VD       0.127000
     36 H7           2.6560     0.1730     1.8930 ha         1 1VD       0.118000
     37 H8           2.1930     3.2190    -0.3600 h1         1 1VD       0.071700
     38 H9           1.1900     3.8130     1.8040 hc         1 1VD       0.047033
     39 H10          1.7800     2.3120     2.5440 hc         1 1VD       0.047033
     40 H11          2.9320     3.5560     2.0090 hc         1 1VD       0.047033
     41 H12          0.8020     0.7050     0.1080 hn         1 1VD       0.317500
     42 H13         -1.9830     1.6790    -1.5780 hc         1 1VD       0.075700
     43 H14         -1.1600     0.3520    -0.6970 hc         1 1VD       0.075700
     44 H15         -2.1220     1.2160     1.4530 hc         1 1VD       0.076700
     45 H16         -2.9570     2.4880     0.5890 hc         1 1VD       0.076700
     46 H17         -4.2590    -3.0740     1.7630 ha         1 1VD       0.130000
     47 H18         -6.2250    -4.5190     1.2950 ha         1 1VD       0.117000
     48 H19         -8.0400    -3.7060    -0.2090 ha         1 1VD       0.121000
     49 H20         -7.8830    -1.4520    -1.2410 ha         1 1VD       0.136000
     50 H21         -4.6040     1.9480    -0.9580 hn         1 1VD       0.330500
@<TRIPOS>BOND
     1     1     2 2   
     2     1     5 1   
     3     1    30 1   
     4     2     3 1   
     5     2    31 1   
     6     3     4 2   
     7     4     5 1   
     8     4    32 1   
     9     5     6 1   
    10     6     7 ar  
    11     6     9 ar  
    12     7     8 ar  
    13     7    33 1   
    14     8    11 ar  
    15     8    34 1   
    16     9    10 ar  
    17     9    35 1   
    18    10    11 ar  
    19    10    36 1   
    20    11    12 1   
    21    12    13 1   
    22    12    14 1   
    23    12    37 1   
    24    13    38 1   
    25    13    39 1   
    26    13    40 1   
    27    14    15 1   
    28    14    41 1   
    29    15    16 2   
    30    15    17 1   
    31    17    18 1   
    32    17    42 1   
    33    17    43 1   
    34    18    19 1   
    35    18    44 1   
    36    18    45 1   
    37    19    20 2   
    38    19    29 1   
    39    20    21 1   
    40    21    22 ar  
    41    21    26 ar  
    42    22    23 ar  
    43    22    46 1   
    44    23    24 ar  
    45    23    47 1   
    46    24    25 ar  
    47    24    48 1   
    48    25    26 ar  
    49    25    49 1   
    50    26    27 1   
    51    27    28 2   
    52    27    29 1   
    53    29    50 1   
@<TRIPOS>SUBSTRUCTURE
     1 1VD         1 TEMP              0 ****  ****    0 ROOT
