@<TRIPOS>MOLECULE
1VE
   38    41     1     0     0
SMALL
No Charge or Current Charge


@<TRIPOS>ATOM
      1 C2          -5.9160    -1.3730     0.2910 cc         1 1VE       0.509900
      2 C6          -4.8470    -0.4530     0.3550 cc         1 1VE       0.118500
      3 C7          -3.5290    -0.6900    -0.3080 c          1 1VE       0.523200
      4 C10         -2.8300     1.7910    -0.3500 ca         1 1VE      -0.085000
      5 C11         -1.8300     2.7770    -0.3310 ca         1 1VE      -0.084000
      6 C12         -0.4760     2.4160    -0.2470 ca         1 1VE      -0.164000
      7 C13         -0.1170     1.0530    -0.1930 ca         1 1VE       0.128100
      8 C15          2.3040     1.5630    -0.0950 c3         1 1VE       0.146300
      9 C16          3.6150     0.8100    -0.0160 cc         1 1VE       0.405800
     10 C19          7.1130     0.3410     0.2420 ca         1 1VE      -0.046000
     11 C21          7.1070    -2.1140     0.1610 ca         1 1VE      -0.090000
     12 C22          5.7010    -2.1180     0.0510 ca         1 1VE      -0.115000
     13 C23          5.0510    -0.8780     0.0410 ca         1 1VE      -0.076200
     14 C26         -1.1200     0.0700    -0.2130 ca         1 1VE      -0.089000
     15 N1          -5.9460    -2.5520    -0.3850 nv         1 1VE      -1.035900
     16 N3          -6.9610    -1.0000     0.9650 nd         1 1VE      -0.438300
     17 O4          -6.5270     0.2550     1.5030 os         1 1VE       0.119600
     18 N5          -5.1830     0.5770     1.1090 nd         1 1VE      -0.277300
     19 O8          -3.2550    -1.7400    -0.8850 o          1 1VE      -0.517100
     20 C9          -2.4900     0.4190    -0.2710 ca         1 1VE      -0.131600
     21 N17          4.8320     1.3880     0.0980 nd         1 1VE      -0.567100
     22 C18          5.7150     0.3110     0.1320 ca         1 1VE       0.066400
     23 C20          7.8110    -0.8880     0.2570 ca         1 1VE      -0.135000
     24 N24          3.7280    -0.5800    -0.0530 na         1 1VE      -0.297600
     25 H29         -3.8650     2.1080    -0.4550 ha         1 1VE       0.132000
     26 H30         -2.1070     3.8280    -0.3910 ha         1 1VE       0.122000
     27 H31          0.2740     3.2010    -0.2350 ha         1 1VE       0.123000
     28 H33          2.2300     2.2270     0.7750 h1         1 1VE       0.065200
     29 H32          2.3120     2.1800    -1.0020 h1         1 1VE       0.065200
     30 H34          7.6440     1.2870     0.3150 ha         1 1VE       0.129000
     31 H36          7.6530    -3.0550     0.1730 ha         1 1VE       0.113000
     32 H37          5.1450    -3.0500    -0.0230 ha         1 1VE       0.118000
     33 H38         -0.8270    -0.9760    -0.1720 ha         1 1VE       0.144000
     34 H28         -6.6660    -3.2230    -0.1290 hn         1 1VE       0.494500
     35 H27         -5.0640    -2.9230    -0.7330 hn         1 1VE       0.494500
     36 H35          8.8950    -0.8920     0.3410 ha         1 1VE       0.115000
     37 H25          2.9540    -1.2270    -0.1330 hn         1 1VE       0.365000
     38 O14          1.1950     0.6330    -0.1220 os         1 1VE      -0.352100
@<TRIPOS>BOND
     1     1     2 1   
     2     1    15 1   
     3     1    16 2   
     4     2     3 1   
     5     2    18 2   
     6     3    19 2   
     7     3    20 1   
     8     4     5 ar  
     9     4    20 ar  
    10     4    25 1   
    11     5     6 ar  
    12     5    26 1   
    13     6     7 ar  
    14     6    27 1   
    15     7    14 ar  
    16     7    38 1   
    17     8     9 1   
    18     8    28 1   
    19     8    29 1   
    20     8    38 1   
    21     9    21 2   
    22     9    24 1   
    23    10    22 ar  
    24    10    23 ar  
    25    10    30 1   
    26    11    12 ar  
    27    11    23 ar  
    28    11    31 1   
    29    12    13 ar  
    30    12    32 1   
    31    13    22 ar  
    32    13    24 1   
    33    14    20 ar  
    34    14    33 1   
    35    15    34 1   
    36    15    35 1   
    37    16    17 1   
    38    17    18 1   
    39    21    22 1   
    40    23    36 1   
    41    24    37 1   
@<TRIPOS>SUBSTRUCTURE
     1 1VE         1 TEMP              0 ****  ****    0 ROOT
