@<TRIPOS>MOLECULE
1VE
   38    41     1     0     0
SMALL
abcg2


@<TRIPOS>ATOM
      1 C2          -5.8890    -1.3600    -0.0650 cc         1 1VE       0.509900
      2 C6          -4.7200    -0.5820     0.2430 cc         1 1VE       0.118500
      3 C7          -3.3830    -0.6920    -0.3730 c          1 1VE       0.523200
      4 C10         -2.7590     1.7270    -0.0440 ca         1 1VE      -0.085000
      5 C11         -1.7730     2.6920     0.0550 ca         1 1VE      -0.084000
      6 C12         -0.4270     2.3500     0.0290 ca         1 1VE      -0.164000
      7 C13         -0.0600     1.0150    -0.1150 ca         1 1VE       0.128100
      8 C15          2.2610     1.5180    -0.0190 c3         1 1VE       0.146300
      9 C16          3.5450     0.7660    -0.0410 cc         1 1VE       0.405800
     10 C19          6.8860     0.0900    -0.8240 ca         1 1VE      -0.046000
     11 C21          7.0830    -1.9250     0.5210 ca         1 1VE      -0.090000
     12 C22          5.7720    -1.8380     0.9540 ca         1 1VE      -0.115000
     13 C23          5.0300    -0.7620     0.4800 ca         1 1VE      -0.076200
     14 C26         -1.0430     0.0380    -0.2370 ca         1 1VE      -0.089000
     15 N1          -6.0490    -2.2590    -1.0530 nv         1 1VE      -1.035900
     16 N3          -6.8310    -0.9850     0.7550 nd         1 1VE      -0.438300
     17 O4          -6.2750    -0.0230     1.5400 os         1 1VE       0.119600
     18 N5          -5.0160     0.2050     1.2280 nd         1 1VE      -0.277300
     19 O8          -3.1320    -1.6950    -1.0100 o          1 1VE      -0.517100
     20 C9          -2.3880     0.3890    -0.1910 ca         1 1VE      -0.131600
     21 N17          4.6040     1.1340    -0.7060 nd         1 1VE      -0.567100
     22 C18          5.5630     0.1970    -0.3980 ca         1 1VE       0.066400
     23 C20          7.6330    -0.9750    -0.3550 ca         1 1VE      -0.135000
     24 N24          3.7380    -0.3610     0.6880 na         1 1VE      -0.297600
     25 H29         -3.7970     2.0240    -0.0370 ha         1 1VE       0.132000
     26 H30         -2.0480     3.7330     0.1530 ha         1 1VE       0.122000
     27 H31          0.3110     3.1360     0.1140 ha         1 1VE       0.123000
     28 H33          2.1700     2.0660     0.9260 h1         1 1VE       0.065200
     29 H32          2.2690     2.2460    -0.8350 h1         1 1VE       0.065200
     30 H34          7.3130     0.8200    -1.5000 ha         1 1VE       0.129000
     31 H36          7.7020    -2.7420     0.8680 ha         1 1VE       0.113000
     32 H37          5.3490    -2.5710     1.6280 ha         1 1VE       0.118000
     33 H38         -0.7480    -0.9970    -0.3570 ha         1 1VE       0.144000
     34 H28         -6.8790    -2.8290    -1.0260 hn         1 1VE       0.494500
     35 H27         -5.2230    -2.7280    -1.3830 hn         1 1VE       0.494500
     36 H35          8.6630    -1.0830    -0.6680 ha         1 1VE       0.115000
     37 H25          3.0570    -0.8140     1.2780 hn         1 1VE       0.365000
     38 O14          1.2150     0.5770    -0.1570 os         1 1VE      -0.352100
@<TRIPOS>BOND
     1     1     2 1   
     2     1    15 1   
     3     1    16 2   
     4     2     3 1   
     5     2    18 2   
     6     3    19 2   
     7     3    20 1   
     8     4     5 ar  
     9     4    20 ar  
    10     4    25 1   
    11     5     6 ar  
    12     5    26 1   
    13     6     7 ar  
    14     6    27 1   
    15     7    14 ar  
    16     7    38 1   
    17     8     9 1   
    18     8    28 1   
    19     8    29 1   
    20     8    38 1   
    21     9    21 2   
    22     9    24 1   
    23    10    22 ar  
    24    10    23 ar  
    25    10    30 1   
    26    11    12 ar  
    27    11    23 ar  
    28    11    31 1   
    29    12    13 ar  
    30    12    32 1   
    31    13    22 ar  
    32    13    24 1   
    33    14    20 ar  
    34    14    33 1   
    35    15    34 1   
    36    15    35 1   
    37    16    17 1   
    38    17    18 1   
    39    21    22 1   
    40    23    36 1   
    41    24    37 1   
@<TRIPOS>SUBSTRUCTURE
     1 1VE         1 TEMP              0 ****  ****    0 ROOT
