@<TRIPOS>MOLECULE
1VF
   46    49     1     0     0
SMALL
No Charge or Current Charge


@<TRIPOS>ATOM
      1 CAD          5.6620    -0.0250     1.0420 c6         1 1VF       0.097500
      2 CAC          6.5780    -0.0890    -0.2110 c6         1 1VF       0.142300
      3 NAB          6.3710     1.0890    -1.1010 n3         1 1VF      -0.714600
      4 CAA          7.2780     1.0860    -2.2690 c3         1 1VF       0.152100
      5 CAG          4.9360     1.2060    -1.4900 c6         1 1VF       0.142300
      6 CAF          3.9940     1.2630    -0.2530 c6         1 1VF       0.097500
      7 NAE          4.2220     0.1220     0.6840 n          1 1VF      -0.407800
      8 CAH          3.3340    -0.9750     0.7540 c          1 1VF       0.615700
      9 OAI          3.7550    -2.1080     0.9580 o          1 1VF      -0.593100
     10 CAJ          1.8420    -0.7130     0.6810 ca         1 1VF      -0.122600
     11 CAO          0.9810    -1.7210     0.1970 ca         1 1VF      -0.084000
     12 CAN         -0.4070    -1.5120     0.1370 ca         1 1VF      -0.081500
     13 CAK          1.2730     0.4960     1.1400 ca         1 1VF      -0.084000
     14 CAL         -0.1160     0.7030     1.0810 ca         1 1VF      -0.081500
     15 CAM         -0.9730    -0.2990     0.5790 ca         1 1VF      -0.056800
     16 CAP         -2.4240    -0.0940     0.5060 cc         1 1VF       0.204900
     17 OAZ         -3.1260    -0.7540    -0.4910 os         1 1VF      -0.218200
     18 CAY         -4.4590    -0.4040    -0.6570 ca         1 1VF       0.152100
     19 CAX         -5.1060    -0.8990    -1.8030 ca         1 1VF      -0.141000
     20 CAW         -6.4630    -0.6230    -2.0390 ca         1 1VF      -0.057000
     21 CAV         -7.1880     0.1480    -1.1180 ca         1 1VF      -0.146000
     22 CAU         -6.5570     0.6400     0.0360 ca         1 1VF      -0.024000
     23 CAT         -5.1920     0.3620     0.2670 ca         1 1VF      -0.226600
     24 CAR         -4.5020     0.8660     1.4710 c          1 1VF       0.595900
     25 OAS         -5.0740     1.4730     2.3660 o          1 1VF      -0.540100
     26 CAQ         -3.0780     0.6070     1.4970 cd         1 1VF      -0.384200
     27 H1           5.8220    -0.9220     1.6580 h1         1 1VF       0.063200
     28 H2           5.9610     0.8370     1.6550 h1         1 1VF       0.063200
     29 H3           7.6250    -0.1380     0.1210 h1         1 1VF       0.041950
     30 H4           6.3660    -1.0210    -0.7550 h1         1 1VF       0.041950
     31 H6           7.0910     0.2130    -2.9100 h1         1 1VF       0.033033
     32 H7           7.1370     1.9930    -2.8720 h1         1 1VF       0.033033
     33 H8           8.3270     1.0550    -1.9450 h1         1 1VF       0.033033
     34 H9           4.7760     2.1100    -2.0950 h1         1 1VF       0.041950
     35 H10          4.6430     0.3470    -2.1120 h1         1 1VF       0.041950
     36 H11          4.1640     2.2060     0.2860 h1         1 1VF       0.063200
     37 H12          2.9600     1.2770    -0.6190 h1         1 1VF       0.063200
     38 H13          1.3910    -2.6690    -0.1450 ha         1 1VF       0.129000
     39 H14         -1.0450    -2.3050    -0.2480 ha         1 1VF       0.128500
     40 H15          1.9020     1.2790     1.5580 ha         1 1VF       0.129000
     41 H16         -0.5210     1.6530     1.4230 ha         1 1VF       0.128500
     42 H17         -4.5480    -1.5030    -2.5150 ha         1 1VF       0.133000
     43 H18         -6.9510    -1.0100    -2.9320 ha         1 1VF       0.120000
     44 H19         -8.2390     0.3630    -1.2960 ha         1 1VF       0.123000
     45 H20         -7.1290     1.2350     0.7460 ha         1 1VF       0.139000
     46 H21         -2.5630     1.0250     2.3520 ha         1 1VF       0.214000
@<TRIPOS>BOND
     1     1     2 1   
     2     1     7 1   
     3     1    27 1   
     4     1    28 1   
     5     2     3 1   
     6     2    29 1   
     7     2    30 1   
     8     3     4 1   
     9     3     5 1   
    10     4    31 1   
    11     4    32 1   
    12     4    33 1   
    13     5     6 1   
    14     5    34 1   
    15     5    35 1   
    16     6     7 1   
    17     6    36 1   
    18     6    37 1   
    19     7     8 1   
    20     8     9 2   
    21     8    10 1   
    22    10    11 ar  
    23    10    13 ar  
    24    11    12 ar  
    25    11    38 1   
    26    12    15 ar  
    27    12    39 1   
    28    13    14 ar  
    29    13    40 1   
    30    14    15 ar  
    31    14    41 1   
    32    15    16 1   
    33    16    17 1   
    34    16    26 2   
    35    17    18 1   
    36    18    19 ar  
    37    18    23 ar  
    38    19    20 ar  
    39    19    42 1   
    40    20    21 ar  
    41    20    43 1   
    42    21    22 ar  
    43    21    44 1   
    44    22    23 ar  
    45    22    45 1   
    46    23    24 1   
    47    24    25 2   
    48    24    26 1   
    49    26    46 1   
@<TRIPOS>SUBSTRUCTURE
     1 1VF         1 TEMP              0 ****  ****    0 ROOT
