@<TRIPOS>MOLECULE
1VF
   46    49     1     0     0
SMALL
bcc


@<TRIPOS>ATOM
      1 CAD          5.6000    -0.3070     0.8760 c6         1 1VF       0.097500
      2 CAC          6.4290    -0.2320    -0.3930 c6         1 1VF       0.142300
      3 NAB          6.2180     1.0340    -1.0650 n3         1 1VF      -0.714600
      4 CAA          7.0570     1.1660    -2.2350 c3         1 1VF       0.152100
      5 CAG          4.8180     1.2100    -1.3870 c6         1 1VF       0.142300
      6 CAF          3.9570     1.1610    -0.1350 c6         1 1VF       0.097500
      7 NAE          4.1930    -0.0740     0.5940 n          1 1VF      -0.474800
      8 CAH          3.2710    -1.0180     0.8610 c          1 1VF       0.682700
      9 OAI          3.5500    -2.1460     1.2460 o          1 1VF      -0.593100
     10 CAJ          1.8260    -0.6460     0.7230 ca         1 1VF      -0.122600
     11 CAO          0.9710    -1.5010     0.0360 ca         1 1VF      -0.102000
     12 CAN         -0.3850    -1.2310    -0.0370 ca         1 1VF      -0.099500
     13 CAK          1.2960     0.4680     1.3680 ca         1 1VF      -0.102000
     14 CAL         -0.0610     0.7290     1.3150 ca         1 1VF      -0.099500
     15 CAM         -0.9200    -0.1150     0.6100 ca         1 1VF      -0.056800
     16 CAP         -2.3600     0.1700     0.5570 cc         1 1VF       0.204900
     17 OAZ         -2.9740    -0.4810    -0.4370 os         1 1VF      -0.218200
     18 CAY         -4.3070    -0.3540    -0.6290 ca         1 1VF       0.152100
     19 CAX         -4.8620    -1.0870    -1.6750 ca         1 1VF      -0.159000
     20 CAW         -6.2170    -0.9810    -1.9090 ca         1 1VF      -0.075000
     21 CAV         -7.0180    -0.1550    -1.1150 ca         1 1VF      -0.164000
     22 CAU         -6.4550     0.5630    -0.0840 ca         1 1VF      -0.042000
     23 CAT         -5.0830     0.4730     0.1770 ca         1 1VF      -0.226600
     24 CAR         -4.4500     1.2140     1.2750 c          1 1VF       0.595900
     25 OAS         -5.0790     1.9560     2.0180 o          1 1VF      -0.540100
     26 CAQ         -3.0290     0.9830     1.4040 cd         1 1VF      -0.334200
     27 H1           5.7230    -1.2770     1.3480 h1         1 1VF       0.063200
     28 H2           5.9400     0.4580     1.5800 h1         1 1VF       0.063200
     29 H3           7.4840    -0.3250    -0.1260 h1         1 1VF       0.041950
     30 H4           6.1830    -1.0890    -1.0440 h1         1 1VF       0.041950
     31 H6           6.8620     0.3970    -2.9980 h1         1 1VF       0.033033
     32 H7           6.9020     2.1420    -2.6960 h1         1 1VF       0.033033
     33 H8           8.1080     1.0920    -1.9490 h1         1 1VF       0.033033
     34 H9           4.6770     2.1830    -1.8610 h1         1 1VF       0.041950
     35 H10          4.4580     0.4470    -2.0990 h1         1 1VF       0.041950
     36 H11          4.1910     2.0130     0.5110 h1         1 1VF       0.063200
     37 H12          2.9140     1.2440    -0.4270 h1         1 1VF       0.063200
     38 H13          1.3620    -2.3810    -0.4550 ha         1 1VF       0.147000
     39 H14         -1.0200    -1.9100    -0.5880 ha         1 1VF       0.146500
     40 H15          1.9400     1.1400     1.9200 ha         1 1VF       0.147000
     41 H16         -0.4380     1.6120     1.8130 ha         1 1VF       0.146500
     42 H17         -4.2330    -1.7220    -2.2840 ha         1 1VF       0.151000
     43 H18         -6.6600    -1.5440    -2.7200 ha         1 1VF       0.138000
     44 H19         -8.0790    -0.0810    -1.3140 ha         1 1VF       0.141000
     45 H20         -7.0660     1.2050     0.5360 ha         1 1VF       0.157000
     46 H21         -2.5020     1.4670     2.2140 ha         1 1VF       0.164000
@<TRIPOS>BOND
     1     1     2 1   
     2     1     7 1   
     3     1    27 1   
     4     1    28 1   
     5     2     3 1   
     6     2    29 1   
     7     2    30 1   
     8     3     4 1   
     9     3     5 1   
    10     4    31 1   
    11     4    32 1   
    12     4    33 1   
    13     5     6 1   
    14     5    34 1   
    15     5    35 1   
    16     6     7 1   
    17     6    36 1   
    18     6    37 1   
    19     7     8 1   
    20     8     9 2   
    21     8    10 1   
    22    10    11 ar  
    23    10    13 ar  
    24    11    12 ar  
    25    11    38 1   
    26    12    15 ar  
    27    12    39 1   
    28    13    14 ar  
    29    13    40 1   
    30    14    15 ar  
    31    14    41 1   
    32    15    16 1   
    33    16    17 1   
    34    16    26 2   
    35    17    18 1   
    36    18    19 ar  
    37    18    23 ar  
    38    19    20 ar  
    39    19    42 1   
    40    20    21 ar  
    41    20    43 1   
    42    21    22 ar  
    43    21    44 1   
    44    22    23 ar  
    45    22    45 1   
    46    23    24 1   
    47    24    25 2   
    48    24    26 1   
    49    26    46 1   
@<TRIPOS>SUBSTRUCTURE
     1 1VF         1 TEMP              0 ****  ****    0 ROOT
