@<TRIPOS>MOLECULE
1VG
   32    35     1     0     0
SMALL
abcg2


@<TRIPOS>ATOM
      1 CAC         -1.8160     1.6170    -0.2350 cc         1 1VG      -0.375200
      2 CAB         -3.2600     1.7040    -0.2520 c          1 1VG       0.594900
      3 OAA         -3.8660     2.7540    -0.4170 o          1 1VG      -0.535100
      4 CAK         -3.9420     0.4170    -0.0650 ca         1 1VG      -0.226600
      5 CAJ         -5.3370     0.3120    -0.0620 ca         1 1VG      -0.024000
      6 CAI         -5.9460    -0.9110     0.1140 ca         1 1VG      -0.144000
      7 CAH         -5.1660    -2.0580     0.2920 ca         1 1VG      -0.056000
      8 CAG         -3.7890    -1.9830     0.2930 ca         1 1VG      -0.141000
      9 CAF         -3.1890    -0.7400     0.1130 ca         1 1VG       0.151100
     10 OAE         -1.8360    -0.7100     0.1280 os         1 1VG      -0.218200
     11 CAD         -1.1790     0.4420    -0.0430 cd         1 1VG       0.196900
     12 CAL          0.2780     0.2690    -0.0150 ca         1 1VG      -0.047800
     13 CAQ          0.8560    -0.9660    -0.3110 ca         1 1VG      -0.078000
     14 CAP          2.2310    -1.1150    -0.3010 ca         1 1VG      -0.083500
     15 CAM          1.1090     1.3440     0.3050 ca         1 1VG      -0.078000
     16 CAN          2.4810     1.1940     0.3190 ca         1 1VG      -0.083500
     17 CAO          3.0560    -0.0400     0.0150 ca         1 1VG      -0.123500
     18 CAR          4.5060    -0.1710     0.0370 cc         1 1VG       0.451000
     19 NAV          5.2110    -1.2980    -0.0930 na         1 1VG      -0.208700
     20 NAU          6.4980    -1.0140    -0.0200 nc         1 1VG      -0.199800
     21 NAT          6.5800     0.2470     0.1500 nd         1 1VG      -0.037000
     22 NAS          5.3740     0.8050     0.1900 nd         1 1VG      -0.382000
     23 H1          -1.2420     2.5170    -0.4000 ha         1 1VG       0.216000
     24 H3          -5.9300     1.2060    -0.2020 ha         1 1VG       0.140000
     25 H4          -7.0240    -0.9870     0.1160 ha         1 1VG       0.124000
     26 H5          -5.6440    -3.0180     0.4330 ha         1 1VG       0.121000
     27 H6          -3.1780    -2.8650     0.4320 ha         1 1VG       0.133000
     28 H8           0.2440    -1.8190    -0.5680 ha         1 1VG       0.133000
     29 H9           2.6420    -2.0840    -0.5540 ha         1 1VG       0.130000
     30 H10          0.6890     2.3050     0.5690 ha         1 1VG       0.133000
     31 H11          3.1070     2.0360     0.5780 ha         1 1VG       0.130000
     32 H12          4.9090    -2.2540    -0.2160 hn         1 1VG       0.388000
@<TRIPOS>BOND
     1     1     2 1   
     2     1    11 2   
     3     1    23 1   
     4     2     3 2   
     5     2     4 1   
     6     4     5 ar  
     7     4     9 ar  
     8     5     6 ar  
     9     5    24 1   
    10     6     7 ar  
    11     6    25 1   
    12     7     8 ar  
    13     7    26 1   
    14     8     9 ar  
    15     8    27 1   
    16     9    10 1   
    17    10    11 1   
    18    11    12 1   
    19    12    13 ar  
    20    12    15 ar  
    21    13    14 ar  
    22    13    28 1   
    23    14    17 ar  
    24    14    29 1   
    25    15    16 ar  
    26    15    30 1   
    27    16    17 ar  
    28    16    31 1   
    29    17    18 1   
    30    18    19 1   
    31    18    22 2   
    32    19    20 1   
    33    19    32 1   
    34    20    21 2   
    35    21    22 1   
@<TRIPOS>SUBSTRUCTURE
     1 1VG         1 TEMP              0 ****  ****    0 ROOT
