@<TRIPOS>MOLECULE
1VG
   32    35     1     0     0
SMALL
No Charge or Current Charge


@<TRIPOS>ATOM
      1 CAC         -1.8690     1.6650     0.0150 cc         1 1VG      -0.375200
      2 CAB         -3.3280     1.7260     0.0200 c          1 1VG       0.594900
      3 OAA         -3.9360     2.7870     0.0210 o          1 1VG      -0.535100
      4 CAK         -4.0200     0.4050     0.0220 ca         1 1VG      -0.226600
      5 CAJ         -5.4290     0.3100     0.0270 ca         1 1VG      -0.024000
      6 CAI         -6.0470    -0.9530     0.0290 ca         1 1VG      -0.144000
      7 CAH         -5.2680    -2.1220     0.0260 ca         1 1VG      -0.056000
      8 CAG         -3.8660    -2.0250     0.0220 ca         1 1VG      -0.141000
      9 CAF         -3.2460    -0.7650     0.0200 ca         1 1VG       0.151100
     10 OAE         -1.8740    -0.6990     0.0150 os         1 1VG      -0.218200
     11 CAD         -1.1680     0.4770     0.0130 cd         1 1VG       0.196900
     12 CAL          0.3090     0.3130     0.0080 ca         1 1VG      -0.047800
     13 CAQ          0.8950    -0.9740     0.0060 ca         1 1VG      -0.078000
     14 CAP          2.2910    -1.1360     0.0020 ca         1 1VG      -0.083500
     15 CAM          1.1710     1.4320     0.0050 ca         1 1VG      -0.078000
     16 CAN          2.5670     1.2700     0.0010 ca         1 1VG      -0.083500
     17 CAO          3.1480    -0.0150    -0.0010 ca         1 1VG      -0.123500
     18 CAR          4.6120    -0.1690    -0.0060 cc         1 1VG       0.451000
     19 NAV          5.3030    -1.3480    -0.0080 na         1 1VG      -0.208700
     20 NAU          6.6400    -1.1160    -0.0120 nc         1 1VG      -0.199800
     21 NAT          6.7440     0.1850    -0.0130 nd         1 1VG      -0.037000
     22 NAS          5.5110     0.7950    -0.0090 nd         1 1VG      -0.382000
     23 H1          -1.3860     2.6310     0.0130 ha         1 1VG       0.216000
     24 H3          -6.0440     1.2080     0.0280 ha         1 1VG       0.140000
     25 H4          -7.1330    -1.0250     0.0320 ha         1 1VG       0.124000
     26 H5          -5.7480    -3.0990     0.0280 ha         1 1VG       0.121000
     27 H6          -3.2580    -2.9270     0.0200 ha         1 1VG       0.133000
     28 H8           0.2740    -1.8670     0.0080 ha         1 1VG       0.133000
     29 H9           2.6950    -2.1460     0.0010 ha         1 1VG       0.130000
     30 H10          0.7740     2.4430     0.0060 ha         1 1VG       0.133000
     31 H11          3.1970     2.1580    -0.0020 ha         1 1VG       0.130000
     32 H12          4.9140    -2.2820    -0.0070 hn         1 1VG       0.388000
@<TRIPOS>BOND
     1     1     2 1   
     2     1    11 2   
     3     1    23 1   
     4     2     3 2   
     5     2     4 1   
     6     4     5 ar  
     7     4     9 ar  
     8     5     6 ar  
     9     5    24 1   
    10     6     7 ar  
    11     6    25 1   
    12     7     8 ar  
    13     7    26 1   
    14     8     9 ar  
    15     8    27 1   
    16     9    10 1   
    17    10    11 1   
    18    11    12 1   
    19    12    13 ar  
    20    12    15 ar  
    21    13    14 ar  
    22    13    28 1   
    23    14    17 ar  
    24    14    29 1   
    25    15    16 ar  
    26    15    30 1   
    27    16    17 ar  
    28    16    31 1   
    29    17    18 1   
    30    18    19 1   
    31    18    22 2   
    32    19    20 1   
    33    19    32 1   
    34    20    21 2   
    35    21    22 1   
@<TRIPOS>SUBSTRUCTURE
     1 1VG         1 TEMP              0 ****  ****    0 ROOT
