@<TRIPOS>MOLECULE
1VI
   60    63     1     0     0
SMALL
No Charge or Current Charge


@<TRIPOS>ATOM
      1 CAA          5.2690    -3.4540    -0.5110 c3         1 1VI       0.147900
      2 OAJ          5.1960    -2.0170    -0.5170 os         1 1VI      -0.344100
      3 CAK          6.2380    -1.2180    -0.0800 ca         1 1VI       0.104100
      4 CAL          7.4500    -1.7680     0.3960 ca         1 1VI      -0.160000
      5 CAM          8.4870    -0.9270     0.8370 ca         1 1VI      -0.160000
      6 CAN          8.3240     0.4730     0.8080 ca         1 1VI       0.107100
      7 OAC          9.3060     1.3460     1.2300 os         1 1VI      -0.340100
      8 CAB         10.5750     0.8900     1.7330 c3         1 1VI       0.148900
      9 CAO          7.1200     1.0190     0.3350 ca         1 1VI      -0.108000
     10 CAQ          6.0740     0.1860    -0.1130 ca         1 1VI      -0.080300
     11 CAR          4.7780     0.8190    -0.6160 c3         1 1VI      -0.006100
     12 CAS          3.6960     0.8770     0.4860 c3         1 1VI      -0.160400
     13 CAT          2.3900     1.4760    -0.0460 c          1 1VI       0.608100
     14 OAP          2.2720     2.6760    -0.2520 o          1 1VI      -0.524100
     15 NBC          1.3740     0.5590    -0.2110 ns         1 1VI      -0.336900
     16 CBG          0.0730     0.7230    -0.7040 ca         1 1VI       0.497900
     17 CBF         -0.9660    -0.1070    -0.2600 ca         1 1VI      -0.231000
     18 NBH         -0.0750     1.6300    -1.6880 nb         1 1VI      -0.674000
     19 CBI         -1.3030     1.7660    -2.2330 ca         1 1VI       0.375900
     20 CBD         -2.4060     0.9980    -1.8290 ca         1 1VI      -0.185000
     21 CBE         -2.2460     0.0450    -0.8100 ca         1 1VI       0.060000
     22 CBB         -3.3470    -0.8140    -0.3850 cc         1 1VI      -0.147000
     23 NBA         -3.3110    -2.1830    -0.2530 na         1 1VI      -0.279500
     24 CAZ         -4.5850    -2.5510     0.0440 cc         1 1VI       0.520800
     25 SAV         -5.0090    -4.2360     0.2880 ss         1 1VI      -0.355300
     26 CAU         -6.8180    -4.1340     0.6700 c3         1 1VI       0.047900
     27 NAY         -5.4230    -1.5430     0.1480 nd         1 1VI      -0.683000
     28 CAX         -4.6530    -0.4200    -0.1210 cd         1 1VI       0.338500
     29 CAW         -5.2310     0.9420     0.0320 ca         1 1VI      -0.129500
     30 CAE         -4.4280     2.0730     0.3160 ca         1 1VI      -0.063500
     31 CAF         -5.0080     3.3410     0.4930 ca         1 1VI      -0.158500
     32 CAG         -6.3980     3.4940     0.4140 ca         1 1VI       0.174000
     33 FAD         -6.9540     4.7120     0.5880 f          1 1VI      -0.180000
     34 CAH         -7.2140     2.3810     0.1750 ca         1 1VI      -0.158500
     35 CAI         -6.6360     1.1120    -0.0010 ca         1 1VI      -0.063500
     36 H1           6.0910    -3.8050    -1.1480 h1         1 1VI       0.039367
     37 H2           5.4220    -3.8330     0.5070 h1         1 1VI       0.039367
     38 H3           4.3350    -3.8820    -0.8960 h1         1 1VI       0.039367
     39 H4           7.6050    -2.8420     0.4330 ha         1 1VI       0.116000
     40 H5           9.4070    -1.3810     1.1980 ha         1 1VI       0.117000
     41 H6          10.4390     0.2640     2.6250 h1         1 1VI       0.039367
     42 H7          11.1100     0.3080     0.9720 h1         1 1VI       0.039367
     43 H8          11.2030     1.7450     2.0110 h1         1 1VI       0.039367
     44 H9           7.0000     2.0990     0.3180 ha         1 1VI       0.130000
     45 H10          4.9710     1.8350    -0.9850 hc         1 1VI       0.068200
     46 H11          4.3910     0.2600    -1.4780 hc         1 1VI       0.068200
     47 H12          3.5190    -0.1420     0.8520 hc         1 1VI       0.063200
     48 H13          4.0670     1.5060     1.3030 hc         1 1VI       0.063200
     49 H14          1.5940    -0.3860     0.0700 hn         1 1VI       0.149000
     50 H15         -0.7780    -0.8470     0.5120 ha         1 1VI       0.115000
     51 H16         -1.4040     2.5060    -3.0250 h4         1 1VI       0.028100
     52 H17         -3.3670     1.1400    -2.3150 ha         1 1VI       0.139000
     53 H18         -2.5260    -2.8070    -0.3870 hn         1 1VI       0.364000
     54 H19         -6.9760    -3.5230     1.5680 h1         1 1VI       0.074700
     55 H20         -7.3530    -3.6790    -0.1730 h1         1 1VI       0.074700
     56 H21         -7.2170    -5.1410     0.8470 h1         1 1VI       0.074700
     57 H23         -3.3530     1.9810     0.4380 ha         1 1VI       0.126000
     58 H24         -4.3820     4.2030     0.7060 ha         1 1VI       0.132500
     59 H25         -8.2940     2.5010     0.1300 ha         1 1VI       0.132500
     60 H26         -7.2880     0.2600    -0.1840 ha         1 1VI       0.126000
@<TRIPOS>BOND
     1     1     2 1   
     2     1    36 1   
     3     1    37 1   
     4     1    38 1   
     5     2     3 1   
     6     3     4 ar  
     7     3    10 ar  
     8     4     5 ar  
     9     4    39 1   
    10     5     6 ar  
    11     5    40 1   
    12     6     7 1   
    13     6     9 ar  
    14     7     8 1   
    15     8    41 1   
    16     8    42 1   
    17     8    43 1   
    18     9    10 ar  
    19     9    44 1   
    20    10    11 1   
    21    11    12 1   
    22    11    45 1   
    23    11    46 1   
    24    12    13 1   
    25    12    47 1   
    26    12    48 1   
    27    13    14 2   
    28    13    15 1   
    29    15    16 1   
    30    15    49 1   
    31    16    17 ar  
    32    16    18 ar  
    33    17    21 ar  
    34    17    50 1   
    35    18    19 ar  
    36    19    20 ar  
    37    19    51 1   
    38    20    21 ar  
    39    20    52 1   
    40    21    22 1   
    41    22    23 1   
    42    22    28 2   
    43    23    24 1   
    44    23    53 1   
    45    24    25 1   
    46    24    27 2   
    47    25    26 1   
    48    26    54 1   
    49    26    55 1   
    50    26    56 1   
    51    27    28 1   
    52    28    29 1   
    53    29    30 ar  
    54    29    35 ar  
    55    30    31 ar  
    56    30    57 1   
    57    31    32 ar  
    58    31    58 1   
    59    32    33 1   
    60    32    34 ar  
    61    34    35 ar  
    62    34    59 1   
    63    35    60 1   
@<TRIPOS>SUBSTRUCTURE
     1 1VI         1 TEMP              0 ****  ****    0 ROOT
