@<TRIPOS>MOLECULE
1VI
   60    63     1     0     0
SMALL
bcc


@<TRIPOS>ATOM
      1 CAA          6.2950    -3.0710    -1.9470 c3         1 1VI       0.124700
      2 OAJ          5.9390    -1.7540    -1.5870 os         1 1VI      -0.320900
      3 CAK          6.6310    -1.1480    -0.5940 ca         1 1VI       0.104100
      4 CAL          7.6830    -1.7340     0.0920 ca         1 1VI      -0.178000
      5 CAM          8.3480    -1.0460     1.1070 ca         1 1VI      -0.178000
      6 CAN          7.9590     0.2420     1.4380 ca         1 1VI       0.107100
      7 OAC          8.5320     0.9990     2.4020 os         1 1VI      -0.316900
      8 CAB          9.6070     0.4440     3.1280 c3         1 1VI       0.125700
      9 CAO          6.8990     0.8270     0.7410 ca         1 1VI      -0.126000
     10 CAQ          6.2280     0.1580    -0.2660 ca         1 1VI      -0.080300
     11 CAR          5.0700     0.8110    -0.9700 c3         1 1VI      -0.006100
     12 CAS          3.7380     0.2820    -0.4510 c3         1 1VI      -0.160400
     13 CAT          2.5360     0.9030    -1.1330 c          1 1VI       0.675100
     14 OAP          2.6230     1.7540    -1.9910 o          1 1VI      -0.524100
     15 NBC          1.3540     0.3890    -0.6690 ns         1 1VI      -0.570400
     16 CBG          0.0480     0.6810    -1.0370 ca         1 1VI       0.563200
     17 CBF         -0.9690    -0.0180    -0.3760 ca         1 1VI      -0.314300
     18 NBH         -0.1900     1.5840    -1.9700 nb         1 1VI      -0.674000
     19 CBI         -1.4620     1.8150    -2.2900 ca         1 1VI       0.441200
     20 CBD         -2.5400     1.1770    -1.7150 ca         1 1VI      -0.268300
     21 CBE         -2.2910     0.2290    -0.7170 ca         1 1VI       0.060000
     22 CBB         -3.3690    -0.5090    -0.0750 cc         1 1VI      -0.161600
     23 NBA         -3.2110    -1.8220     0.3070 na         1 1VI      -0.279900
     24 CAZ         -4.3830    -2.2440     0.8160 cc         1 1VI       0.520800
     25 SAV         -4.5920    -3.8770     1.3890 ss         1 1VI      -0.307400
     26 CAU         -6.3240    -3.8100     1.8930 c3         1 1VI       0.000000
     27 NAY         -5.2790    -1.2940     0.8130 nd         1 1VI      -0.683000
     28 CAX         -4.6660    -0.1990     0.2670 cd         1 1VI       0.403800
     29 CAW         -5.3940     1.0680     0.1600 ca         1 1VI      -0.129500
     30 CAE         -4.7730     2.2960     0.3880 ca         1 1VI      -0.081500
     31 CAF         -5.4790     3.4850     0.2940 ca         1 1VI      -0.176500
     32 CAG         -6.8240     3.4320    -0.0200 ca         1 1VI       0.138900
     33 FAD         -7.5150     4.5790    -0.1150 f          1 1VI      -0.144900
     34 CAH         -7.4800     2.2360    -0.2330 ca         1 1VI      -0.176500
     35 CAI         -6.7570     1.0560    -0.1380 ca         1 1VI      -0.081500
     36 H1           7.3240    -3.1340    -2.3110 h1         1 1VI       0.039367
     37 H2           6.1740    -3.7710    -1.1150 h1         1 1VI       0.039367
     38 H3           5.6230    -3.3660    -2.7500 h1         1 1VI       0.039367
     39 H4           8.0160    -2.7360    -0.1410 ha         1 1VI       0.134000
     40 H5           9.1610    -1.5460     1.6160 ha         1 1VI       0.135000
     41 H6           9.3090    -0.4530     3.6780 h1         1 1VI       0.039367
     42 H7          10.4530     0.1930     2.4820 h1         1 1VI       0.039367
     43 H8           9.9250     1.2010     3.8420 h1         1 1VI       0.039367
     44 H9           6.5960     1.8370     0.9970 ha         1 1VI       0.148000
     45 H10          5.1220     1.8890    -0.8100 hc         1 1VI       0.068200
     46 H11          5.1390     0.6510    -2.0470 hc         1 1VI       0.068200
     47 H12          3.6830    -0.8030    -0.5740 hc         1 1VI       0.063200
     48 H13          3.6580     0.4630     0.6260 hc         1 1VI       0.063200
     49 H14          1.4400    -0.3160     0.0480 hn         1 1VI       0.315500
     50 H15         -0.7170    -0.7300     0.4000 ha         1 1VI       0.133000
     51 H16         -1.6260     2.5540    -3.0670 h4         1 1VI       0.028100
     52 H17         -3.5430     1.3980    -2.0500 ha         1 1VI       0.157000
     53 H18         -2.3910    -2.3870     0.1430 hn         1 1VI       0.313700
     54 H19         -6.4720    -3.0810     2.6860 h1         1 1VI       0.074700
     55 H20         -6.9660    -3.5770     1.0480 h1         1 1VI       0.074700
     56 H21         -6.5620    -4.8030     2.2660 h1         1 1VI       0.074700
     57 H23         -3.7250     2.3340     0.6580 ha         1 1VI       0.144000
     58 H24         -4.9920     4.4340     0.4750 ha         1 1VI       0.150500
     59 H25         -8.5350     2.2210    -0.4700 ha         1 1VI       0.150500
     60 H26         -7.2610     0.1140    -0.3050 ha         1 1VI       0.144000
@<TRIPOS>BOND
     1     1     2 1   
     2     1    36 1   
     3     1    37 1   
     4     1    38 1   
     5     2     3 1   
     6     3     4 ar  
     7     3    10 ar  
     8     4     5 ar  
     9     4    39 1   
    10     5     6 ar  
    11     5    40 1   
    12     6     7 1   
    13     6     9 ar  
    14     7     8 1   
    15     8    41 1   
    16     8    42 1   
    17     8    43 1   
    18     9    10 ar  
    19     9    44 1   
    20    10    11 1   
    21    11    12 1   
    22    11    45 1   
    23    11    46 1   
    24    12    13 1   
    25    12    47 1   
    26    12    48 1   
    27    13    14 2   
    28    13    15 1   
    29    15    16 1   
    30    15    49 1   
    31    16    17 ar  
    32    16    18 ar  
    33    17    21 ar  
    34    17    50 1   
    35    18    19 ar  
    36    19    20 ar  
    37    19    51 1   
    38    20    21 ar  
    39    20    52 1   
    40    21    22 1   
    41    22    23 1   
    42    22    28 2   
    43    23    24 1   
    44    23    53 1   
    45    24    25 1   
    46    24    27 2   
    47    25    26 1   
    48    26    54 1   
    49    26    55 1   
    50    26    56 1   
    51    27    28 1   
    52    28    29 1   
    53    29    30 ar  
    54    29    35 ar  
    55    30    31 ar  
    56    30    57 1   
    57    31    32 ar  
    58    31    58 1   
    59    32    33 1   
    60    32    34 ar  
    61    34    35 ar  
    62    34    59 1   
    63    35    60 1   
@<TRIPOS>SUBSTRUCTURE
     1 1VI         1 TEMP              0 ****  ****    0 ROOT
