@<TRIPOS>MOLECULE
1VJ
   34    35     1     0     0
SMALL
No Charge or Current Charge


@<TRIPOS>ATOM
      1 C1           8.1720    -0.2780    -0.1770 c3         1 1VJ      -0.098100
      2 C2           6.9920     0.7060    -0.1970 c3         1 1VJ       0.171600
      3 C6           3.4000    -0.3740     0.0590 c3         1 1VJ       0.096600
      4 C8           0.9250    -0.3610     0.1760 ca         1 1VJ       0.129100
      5 C10         -0.3990    -2.3900     0.4100 ca         1 1VJ      -0.084000
      6 C11         -1.5790    -1.6260     0.4070 ca         1 1VJ      -0.089000
      7 C12         -1.5260    -0.2190     0.2680 ca         1 1VJ      -0.130600
      8 C13         -0.2570     0.3980     0.1740 ca         1 1VJ      -0.085000
      9 C14         -2.7670     0.6580     0.2800 c          1 1VJ       0.519200
     10 C16         -4.0120     0.1400    -0.3650 cc         1 1VJ       0.114500
     11 O3           5.7860    -0.0670    -0.0790 os         1 1VJ      -0.458100
     12 C4           4.5860     0.6020    -0.0740 c          1 1VJ       0.594100
     13 O5           4.4810     1.8210    -0.1640 o          1 1VJ      -0.451000
     14 O7           2.1250     0.3130     0.0670 os         1 1VJ      -0.317100
     15 C9           0.8520    -1.7650     0.2890 ca         1 1VJ      -0.170000
     16 O15         -2.7110     1.7550     0.8310 o          1 1VJ      -0.512100
     17 N17         -4.1460    -0.9800    -1.0500 nd         1 1VJ      -0.275300
     18 O18         -5.5280    -0.9520    -1.4380 os         1 1VJ       0.120600
     19 N19         -6.1950     0.2270    -0.9700 nd         1 1VJ      -0.444300
     20 C20         -5.2380     0.8410    -0.3450 cc         1 1VJ       0.518900
     21 N21         -5.4900     2.0420     0.2380 nv         1 1VJ      -1.043900
     22 H22          8.1860    -0.8450     0.7610 hc         1 1VJ       0.048700
     23 H24          8.1010    -0.9830    -1.0140 hc         1 1VJ       0.048700
     24 H23          9.1200     0.2660    -0.2650 hc         1 1VJ       0.048700
     25 H25          7.0900     1.4120     0.6390 h1         1 1VJ       0.051200
     26 H26          7.0050     1.2740    -1.1370 h1         1 1VJ       0.051200
     27 H28          3.4600    -1.0760    -0.7820 h1         1 1VJ       0.065200
     28 H27          3.5450    -0.9380     0.9880 h1         1 1VJ       0.065200
     29 H30         -0.4560    -3.4710     0.5170 ha         1 1VJ       0.120000
     30 H31         -2.5260    -2.1420     0.5430 ha         1 1VJ       0.129000
     31 H32         -0.1820     1.4800     0.0880 ha         1 1VJ       0.149000
     32 H29          1.7460    -2.3810     0.2960 ha         1 1VJ       0.120000
     33 H34         -4.7820     2.4300     0.8600 hn         1 1VJ       0.499000
     34 H33         -6.4580     2.3010     0.4040 hn         1 1VJ       0.499000
@<TRIPOS>BOND
     1     1     2 1   
     2     1    22 1   
     3     1    23 1   
     4     1    24 1   
     5     2    11 1   
     6     2    25 1   
     7     2    26 1   
     8     3    12 1   
     9     3    14 1   
    10     3    27 1   
    11     3    28 1   
    12     4     8 ar  
    13     4    14 1   
    14     4    15 ar  
    15     5     6 ar  
    16     5    15 ar  
    17     5    29 1   
    18     6     7 ar  
    19     6    30 1   
    20     7     8 ar  
    21     7     9 1   
    22     8    31 1   
    23     9    10 1   
    24     9    16 2   
    25    10    17 2   
    26    10    20 1   
    27    11    12 1   
    28    12    13 2   
    29    15    32 1   
    30    17    18 1   
    31    18    19 1   
    32    19    20 2   
    33    20    21 1   
    34    21    33 1   
    35    21    34 1   
@<TRIPOS>SUBSTRUCTURE
     1 1VJ         1 TEMP              0 ****  ****    0 ROOT
