@<TRIPOS>MOLECULE
1VJ
   34    35     1     0     0
SMALL
abcg2


@<TRIPOS>ATOM
      1 C1           8.0050    -0.2650    -0.1850 c3         1 1VJ      -0.098100
      2 C2           6.8430     0.6990    -0.1910 c3         1 1VJ       0.171600
      3 C6           3.3480    -0.4290     0.0580 c3         1 1VJ       0.096600
      4 C8           0.9880    -0.3800     0.1630 ca         1 1VJ       0.129100
      5 C10         -0.3600    -2.3500     0.4480 ca         1 1VJ      -0.084000
      6 C11         -1.5180    -1.5940     0.3990 ca         1 1VJ      -0.089000
      7 C12         -1.4170    -0.2100     0.2410 ca         1 1VJ      -0.130600
      8 C13         -0.1690     0.3930     0.1400 ca         1 1VJ      -0.085000
      9 C14         -2.6040     0.6780     0.2380 c          1 1VJ       0.519200
     10 C16         -3.8710     0.2160    -0.3570 cc         1 1VJ       0.114500
     11 O3           5.6350    -0.0750    -0.0720 os         1 1VJ      -0.458100
     12 C4           4.4800     0.5630    -0.0750 c          1 1VJ       0.594100
     13 O5           4.3450     1.7530    -0.1680 o          1 1VJ      -0.451000
     14 O7           2.1470     0.2940     0.0300 os         1 1VJ      -0.317100
     15 C9           0.8910    -1.7600     0.3210 ca         1 1VJ      -0.170000
     16 O15         -2.5610     1.8030     0.6920 o          1 1VJ      -0.512100
     17 N17         -3.9960    -0.8440    -1.0940 nd         1 1VJ      -0.275300
     18 O18         -5.2510    -0.9030    -1.4790 os         1 1VJ       0.120600
     19 N19         -5.9870     0.1350    -0.9940 nd         1 1VJ      -0.444300
     20 C20         -5.1560     0.8610    -0.2980 cc         1 1VJ       0.518900
     21 N21         -5.4820     2.0170     0.3020 nv         1 1VJ      -1.043900
     22 H22          8.0400    -0.8440     0.7380 hc         1 1VJ       0.048700
     23 H24          7.9600    -0.9520    -1.0300 hc         1 1VJ       0.048700
     24 H23          8.9350     0.2980    -0.2610 hc         1 1VJ       0.048700
     25 H25          6.9100     1.3980     0.6440 h1         1 1VJ       0.051200
     26 H26          6.8170     1.2760    -1.1160 h1         1 1VJ       0.051200
     27 H28          3.4100    -1.1530    -0.7630 h1         1 1VJ       0.065200
     28 H27          3.4710    -0.9850     0.9950 h1         1 1VJ       0.065200
     29 H30         -0.4240    -3.4210     0.5840 ha         1 1VJ       0.120000
     30 H31         -2.4760    -2.0780     0.5130 ha         1 1VJ       0.129000
     31 H32         -0.0850     1.4660     0.0230 ha         1 1VJ       0.149000
     32 H29          1.7690    -2.3910     0.3520 ha         1 1VJ       0.120000
     33 H34         -4.8580     2.3840     1.0000 hn         1 1VJ       0.499000
     34 H33         -6.4590     2.2190     0.4380 hn         1 1VJ       0.499000
@<TRIPOS>BOND
     1     1     2 1   
     2     1    22 1   
     3     1    23 1   
     4     1    24 1   
     5     2    11 1   
     6     2    25 1   
     7     2    26 1   
     8     3    12 1   
     9     3    14 1   
    10     3    27 1   
    11     3    28 1   
    12     4     8 ar  
    13     4    14 1   
    14     4    15 ar  
    15     5     6 ar  
    16     5    15 ar  
    17     5    29 1   
    18     6     7 ar  
    19     6    30 1   
    20     7     8 ar  
    21     7     9 1   
    22     8    31 1   
    23     9    10 1   
    24     9    16 2   
    25    10    17 2   
    26    10    20 1   
    27    11    12 1   
    28    12    13 2   
    29    15    32 1   
    30    17    18 1   
    31    18    19 1   
    32    19    20 2   
    33    20    21 1   
    34    21    33 1   
    35    21    34 1   
@<TRIPOS>SUBSTRUCTURE
     1 1VJ         1 TEMP              0 ****  ****    0 ROOT
