@<TRIPOS>MOLECULE
1VK
   21    22     1     0     0
SMALL
No Charge or Current Charge


@<TRIPOS>ATOM
      1 C2          -2.6380     0.2680    -0.0620 cc         1 1VK       0.509900
      2 C6          -1.2810    -0.0980    -0.1960 cc         1 1VK       0.118500
      3 C7          -0.1540     0.8130     0.1680 c          1 1VK       0.525200
      4 C10          2.3090     1.1560    -0.2760 ca         1 1VK      -0.051000
      5 C11          3.6390     0.7050    -0.3440 ca         1 1VK      -0.124000
      6 C12          3.9490    -0.6270    -0.0310 ca         1 1VK      -0.076000
      7 C13          2.9270    -1.5060     0.3600 ca         1 1VK      -0.124000
      8 C14          1.5950    -1.0600     0.4280 ca         1 1VK      -0.051000
      9 N1          -3.1290     1.4330     0.4360 nv         1 1VK      -1.035900
     10 N3          -3.4630    -0.6480    -0.4670 nd         1 1VK      -0.439300
     11 O4          -2.5650    -1.6790    -0.8970 os         1 1VK       0.118600
     12 N5          -1.1900    -1.3050    -0.7210 nd         1 1VK      -0.278300
     13 O8          -0.3270     1.9740     0.5320 o          1 1VK      -0.525100
     14 C9           1.2660     0.2760     0.0910 ca         1 1VK      -0.169600
     15 H18          4.4300     1.3920    -0.6380 ha         1 1VK       0.120500
     16 H19          4.9790    -0.9740    -0.0820 ha         1 1VK       0.117000
     17 H20          3.1680    -2.5340     0.6210 ha         1 1VK       0.120500
     18 H21          0.8350    -1.7570     0.7730 ha         1 1VK       0.128000
     19 H15         -4.0970     1.6640     0.2270 hn         1 1VK       0.494000
     20 H16         -2.4790     2.2090     0.5570 hn         1 1VK       0.494000
     21 H17          2.0890     2.1940    -0.5220 ha         1 1VK       0.128000
@<TRIPOS>BOND
     1     1     2 1   
     2     1     9 1   
     3     1    10 2   
     4     2     3 1   
     5     2    12 2   
     6     3    13 2   
     7     3    14 1   
     8     4     5 ar  
     9     4    14 ar  
    10     4    21 1   
    11     5     6 ar  
    12     5    15 1   
    13     6     7 ar  
    14     6    16 1   
    15     7     8 ar  
    16     7    17 1   
    17     8    14 ar  
    18     8    18 1   
    19     9    19 1   
    20     9    20 1   
    21    10    11 1   
    22    11    12 1   
@<TRIPOS>SUBSTRUCTURE
     1 1VK         1 TEMP              0 ****  ****    0 ROOT
