@<TRIPOS>MOLECULE
1VK
   21    22     1     0     0
SMALL
bcc


@<TRIPOS>ATOM
      1 C2          -2.6340     0.2860    -0.0150 cc         1 1VK       0.509900
      2 C6          -1.2460    -0.0170    -0.2380 cc         1 1VK       0.118500
      3 C7          -0.0820     0.8470     0.0420 c          1 1VK       0.525200
      4 C10          2.3390     1.1390    -0.3170 ca         1 1VK      -0.069000
      5 C11          3.6420     0.6710    -0.3220 ca         1 1VK      -0.142000
      6 C12          3.9080    -0.6450     0.0390 ca         1 1VK      -0.094000
      7 C13          2.8690    -1.4920     0.3990 ca         1 1VK      -0.142000
      8 C14          1.5600    -1.0340     0.3840 ca         1 1VK      -0.069000
      9 N1          -3.1590     1.3620     0.5990 nv         1 1VK      -0.925500
     10 N3          -3.3280    -0.7220    -0.4630 nd         1 1VK      -0.439300
     11 O4          -2.4180    -1.6120    -0.9450 os         1 1VK       0.118600
     12 N5          -1.1820    -1.1790    -0.8100 nd         1 1VK      -0.278300
     13 O8          -0.2900     2.0240     0.2590 o          1 1VK      -0.525100
     14 C9           1.2860     0.2860     0.0220 ca         1 1VK      -0.169600
     15 H18          4.4510     1.3310    -0.6030 ha         1 1VK       0.138500
     16 H19          4.9280    -1.0080     0.0430 ha         1 1VK       0.135000
     17 H20          3.0770    -2.5110     0.6940 ha         1 1VK       0.138500
     18 H21          0.7660    -1.7040     0.6800 ha         1 1VK       0.146000
     19 H15         -4.1520     1.5040     0.5070 hn         1 1VK       0.438800
     20 H16         -2.6080     2.2040     0.5980 hn         1 1VK       0.438800
     21 H17          2.1360     2.1650    -0.5940 ha         1 1VK       0.146000
@<TRIPOS>BOND
     1     1     2 1   
     2     1     9 1   
     3     1    10 2   
     4     2     3 1   
     5     2    12 2   
     6     3    13 2   
     7     3    14 1   
     8     4     5 ar  
     9     4    14 ar  
    10     4    21 1   
    11     5     6 ar  
    12     5    15 1   
    13     6     7 ar  
    14     6    16 1   
    15     7     8 ar  
    16     7    17 1   
    17     8    14 ar  
    18     8    18 1   
    19     9    19 1   
    20     9    20 1   
    21    10    11 1   
    22    11    12 1   
@<TRIPOS>SUBSTRUCTURE
     1 1VK         1 TEMP              0 ****  ****    0 ROOT
