@<TRIPOS>MOLECULE
1VL
   51    55     1     0     0
SMALL
abcg2


@<TRIPOS>ATOM
      1 O10         -3.6730     2.3330     1.5050 o          1 1VL      -0.509000
      2 C8          -4.0700     1.3460     0.9280 c          1 1VL       0.537000
      3 C7          -5.4180     0.6450     1.1570 c5         1 1VL       0.145600
      4 O11         -6.5040     1.5190     1.0640 oh         1 1VL      -0.626000
      5 N9          -3.4030     0.6710    -0.0530 n          1 1VL      -0.219400
      6 C5          -4.1960    -0.3540    -0.5810 ca         1 1VL      -0.016000
      7 C4          -3.9020    -1.2370    -1.6030 ca         1 1VL      -0.152000
      8 C3          -4.8860    -2.1550    -1.9660 ca         1 1VL      -0.071000
      9 C2          -6.1170    -2.1890    -1.3270 ca         1 1VL      -0.145000
     10 C1          -6.3900    -1.2990    -0.2880 ca         1 1VL      -0.037000
     11 C6          -5.4230    -0.3890     0.0780 ca         1 1VL      -0.144300
     12 C12         -2.0950     1.0620    -0.5180 c3         1 1VL       0.353200
     13 N13         -1.0510     0.6020     0.3620 n3         1 1VL      -0.731600
     14 C14         -0.8980    -0.8440     0.3510 c6         1 1VL       0.131800
     15 C15          0.1760    -1.2560     1.3510 c6         1 1VL       0.167300
     16 N16          1.4580    -0.6090     1.1360 n3         1 1VL      -0.723600
     17 C17          1.2750     0.8310     1.0680 c6         1 1VL       0.167300
     18 C18          0.2110     1.2610     0.0660 c6         1 1VL       0.131800
     19 H1          -5.3660     0.1590     2.1430 h1         1 1VL       0.068700
     20 H2          -6.5370     2.0500     1.8670 ho         1 1VL       0.460000
     21 H3          -2.9500    -1.2250    -2.1180 ha         1 1VL       0.121000
     22 H4          -4.6800    -2.8540    -2.7670 ha         1 1VL       0.114000
     23 H5          -6.8650    -2.9080    -1.6330 ha         1 1VL       0.119000
     24 H6          -7.3460    -1.3240     0.2210 ha         1 1VL       0.125000
     25 H7          -1.9800     0.7000    -1.5490 h2         1 1VL       0.052200
     26 H8          -2.0580     2.1520    -0.5590 h2         1 1VL       0.052200
     27 H10         -1.8410    -1.3140     0.6390 h1         1 1VL       0.037200
     28 H11         -0.6490    -1.2180    -0.6590 h1         1 1VL       0.037200
     29 H12         -0.1730    -0.9960     2.3560 h1         1 1VL       0.063450
     30 H13          0.3080    -2.3390     1.3250 h1         1 1VL       0.063450
     31 H16          0.9860     1.1910     2.0610 h1         1 1VL       0.063450
     32 H17          2.2250     1.3080     0.8210 h1         1 1VL       0.063450
     33 H18          0.5510     1.0490    -0.9630 h1         1 1VL       0.037200
     34 H19          0.0730     2.3430     0.1350 h1         1 1VL       0.037200
     35 C19          2.2210    -1.1540     0.0290 c3         1 1VL       0.219100
     36 C20          3.6770    -0.7580     0.0920 ca         1 1VL      -0.089300
     37 C21          4.3670    -0.7780     1.2980 ca         1 1VL      -0.088000
     38 C22          5.7260    -0.4540     1.3790 ca         1 1VL      -0.099000
     39 C23          6.3560    -0.1170     0.2060 ca         1 1VL       0.051100
     40 C24          5.6780    -0.0930    -1.0000 ca         1 1VL       0.048100
     41 C25          4.3420    -0.4020    -1.0900 ca         1 1VL      -0.098000
     42 O27          6.5240     0.3020    -1.9840 os         1 1VL      -0.346100
     43 O28          7.6450     0.2610     0.0060 os         1 1VL      -0.344100
     44 C26          7.8210     0.3160    -1.4030 c5         1 1VL       0.372600
     45 H9           2.1440    -2.2440     0.0850 h1         1 1VL       0.037700
     46 H14          1.8310    -0.8800    -0.9620 h1         1 1VL       0.037700
     47 H15          3.8350    -1.0430     2.2020 ha         1 1VL       0.136000
     48 H20          6.2500    -0.4660     2.3250 ha         1 1VL       0.134000
     49 H21          3.8170    -0.3690    -2.0370 ha         1 1VL       0.129000
     50 H22          8.3900    -0.5580    -1.7410 h2         1 1VL       0.063700
     51 H23          8.3380     1.2360    -1.6750 h2         1 1VL       0.063700
@<TRIPOS>BOND
     1     1     2 2   
     2     2     3 1   
     3     2     5 1   
     4     3     4 1   
     5     3    11 1   
     6     3    19 1   
     7     4    20 1   
     8     5     6 1   
     9     5    12 1   
    10     6     7 ar  
    11     6    11 ar  
    12     7     8 ar  
    13     7    21 1   
    14     8     9 ar  
    15     8    22 1   
    16     9    10 ar  
    17     9    23 1   
    18    10    11 ar  
    19    10    24 1   
    20    12    13 1   
    21    12    25 1   
    22    12    26 1   
    23    13    14 1   
    24    13    18 1   
    25    14    15 1   
    26    14    27 1   
    27    14    28 1   
    28    15    16 1   
    29    15    29 1   
    30    15    30 1   
    31    16    17 1   
    32    16    35 1   
    33    17    18 1   
    34    17    31 1   
    35    17    32 1   
    36    18    33 1   
    37    18    34 1   
    38    35    36 1   
    39    35    45 1   
    40    35    46 1   
    41    36    37 ar  
    42    36    41 ar  
    43    37    38 ar  
    44    37    47 1   
    45    38    39 ar  
    46    38    48 1   
    47    39    40 ar  
    48    39    43 1   
    49    40    41 ar  
    50    40    42 1   
    51    41    49 1   
    52    42    44 1   
    53    43    44 1   
    54    44    50 1   
    55    44    51 1   
@<TRIPOS>SUBSTRUCTURE
     1 1VL         1 TEMP              0 ****  ****    0 ROOT
