@<TRIPOS>MOLECULE
1VL
   51    55     1     0     0
SMALL
No Charge or Current Charge


@<TRIPOS>ATOM
      1 O10         -3.7820     2.6160     1.3000 o          1 1VL      -0.509000
      2 C8          -4.1350     1.5810     0.7420 c          1 1VL       0.537000
      3 C7          -5.5650     0.9020     0.7080 c5         1 1VL       0.145600
      4 O11         -6.5810     1.8040     0.2280 oh         1 1VL      -0.626000
      5 N9          -3.3340     0.7570    -0.0690 n          1 1VL      -0.219400
      6 C5          -4.0500    -0.2920    -0.6950 ca         1 1VL      -0.016000
      7 C4          -3.5690    -1.3460    -1.4870 ca         1 1VL      -0.152000
      8 C3          -4.4800    -2.3410    -1.8970 ca         1 1VL      -0.071000
      9 C2          -5.8290    -2.2860    -1.4800 ca         1 1VL      -0.145000
     10 C1          -6.2750    -1.2480    -0.6360 ca         1 1VL      -0.037000
     11 C6          -5.3560    -0.2610    -0.2460 ca         1 1VL      -0.144300
     12 C12         -1.9510     1.1170    -0.4050 c3         1 1VL       0.353200
     13 N13         -0.9660     0.6630     0.6050 n3         1 1VL      -0.731600
     14 C14         -0.9280    -0.8230     0.7850 c6         1 1VL       0.131800
     15 C15          0.1180    -1.2630     1.8610 c6         1 1VL       0.167300
     16 N16          1.4950    -0.7500     1.5710 n3         1 1VL      -0.723600
     17 C17          1.4360     0.7410     1.4220 c6         1 1VL       0.167300
     18 C18          0.4040     1.1960     0.3380 c6         1 1VL       0.131800
     19 H1          -5.7950     0.5350     1.7180 h1         1 1VL       0.068700
     20 H2          -6.5850     2.5800     0.8320 ho         1 1VL       0.460000
     21 H3          -2.5260    -1.3990    -1.7880 ha         1 1VL       0.121000
     22 H4          -4.1400    -3.1600    -2.5280 ha         1 1VL       0.114000
     23 H5          -6.5240    -3.0620    -1.7940 ha         1 1VL       0.119000
     24 H6          -7.3050    -1.2180    -0.2860 ha         1 1VL       0.125000
     25 H7          -1.7160     0.6860    -1.3850 h2         1 1VL       0.052200
     26 H8          -1.9140     2.2090    -0.4940 h2         1 1VL       0.052200
     27 H10         -1.9150    -1.1960     1.0960 h1         1 1VL       0.037200
     28 H11         -0.6880    -1.3150    -0.1680 h1         1 1VL       0.037200
     29 H12         -0.2190    -0.8860     2.8380 h1         1 1VL       0.063450
     30 H13          0.1190    -2.3610     1.9350 h1         1 1VL       0.063450
     31 H16          1.1430     1.1960     2.3790 h1         1 1VL       0.063450
     32 H17          2.4250     1.1540     1.1750 h1         1 1VL       0.063450
     33 H18          0.7550     0.8660    -0.6510 h1         1 1VL       0.037200
     34 H19          0.3840     2.2950     0.3170 h1         1 1VL       0.037200
     35 C19          2.1450    -1.4450     0.4300 c3         1 1VL       0.219100
     36 C20          3.5930    -1.0200     0.2120 ca         1 1VL      -0.089300
     37 C21          4.5790    -1.3360     1.1820 ca         1 1VL      -0.088000
     38 C22          5.9220    -0.9430     0.9970 ca         1 1VL      -0.099000
     39 C23          6.2460    -0.2400    -0.1690 ca         1 1VL       0.051100
     40 C24          5.3000     0.0680    -1.1070 ca         1 1VL       0.048100
     41 C25          3.9590    -0.3040    -0.9520 ca         1 1VL      -0.098000
     42 O27          5.8160     0.7620    -2.1530 os         1 1VL      -0.346100
     43 O28          7.4780     0.2200    -0.5040 os         1 1VL      -0.344100
     44 C26          7.2500     0.8270    -1.8260 c5         1 1VL       0.372600
     45 H9           2.1370    -2.5290     0.6100 h1         1 1VL       0.037700
     46 H14          1.5810    -1.2790    -0.4980 h1         1 1VL       0.037700
     47 H15          4.2960    -1.8800     2.0810 ha         1 1VL       0.136000
     48 H20          6.6840    -1.1770     1.7360 ha         1 1VL       0.134000
     49 H21          3.2250    -0.0440    -1.7100 ha         1 1VL       0.129000
     50 H22          7.8160     0.2680    -2.5800 h2         1 1VL       0.063700
     51 H23          7.5760     1.8740    -1.8110 h2         1 1VL       0.063700
@<TRIPOS>BOND
     1     1     2 2   
     2     2     3 1   
     3     2     5 1   
     4     3     4 1   
     5     3    11 1   
     6     3    19 1   
     7     4    20 1   
     8     5     6 1   
     9     5    12 1   
    10     6     7 ar  
    11     6    11 ar  
    12     7     8 ar  
    13     7    21 1   
    14     8     9 ar  
    15     8    22 1   
    16     9    10 ar  
    17     9    23 1   
    18    10    11 ar  
    19    10    24 1   
    20    12    13 1   
    21    12    25 1   
    22    12    26 1   
    23    13    14 1   
    24    13    18 1   
    25    14    15 1   
    26    14    27 1   
    27    14    28 1   
    28    15    16 1   
    29    15    29 1   
    30    15    30 1   
    31    16    17 1   
    32    16    35 1   
    33    17    18 1   
    34    17    31 1   
    35    17    32 1   
    36    18    33 1   
    37    18    34 1   
    38    35    36 1   
    39    35    45 1   
    40    35    46 1   
    41    36    37 ar  
    42    36    41 ar  
    43    37    38 ar  
    44    37    47 1   
    45    38    39 ar  
    46    38    48 1   
    47    39    40 ar  
    48    39    43 1   
    49    40    41 ar  
    50    40    42 1   
    51    41    49 1   
    52    42    44 1   
    53    43    44 1   
    54    44    50 1   
    55    44    51 1   
@<TRIPOS>SUBSTRUCTURE
     1 1VL         1 TEMP              0 ****  ****    0 ROOT
