@<TRIPOS>MOLECULE
1VM
   45    49     1     0     0
SMALL
abcg2


@<TRIPOS>ATOM
      1 N11         -4.5400    -2.0870     1.9740 nv         1 1VM      -1.077900
      2 C1          -3.9740    -1.8140     0.7980 ca         1 1VM       0.446900
      3 N2          -4.6710    -2.0570    -0.2900 nb         1 1VM      -0.345000
      4 C6          -2.6390    -1.2680     0.7210 ca         1 1VM      -0.225000
      5 C5          -2.1680    -1.0250    -0.5870 ca         1 1VM       0.108000
      6 N4          -2.9010    -1.2800    -1.6900 nb         1 1VM      -0.293000
      7 C3          -4.1030    -1.7820    -1.4830 ca         1 1VM       0.433900
      8 N12         -4.8530    -2.0850    -2.5600 nv         1 1VM      -1.058900
      9 C7          -1.8290    -0.9890     1.8310 ca         1 1VM      -0.045000
     10 C8          -0.5700    -0.4680     1.6670 ca         1 1VM      -0.144000
     11 C9          -0.1110    -0.2090     0.3670 ca         1 1VM       0.021800
     12 C10         -0.8730    -0.4830    -0.7390 ca         1 1VM      -0.102000
     13 N13          1.1830     0.3470     0.1930 na         1 1VM      -0.096400
     14 C14          2.3260    -0.3760    -0.0430 ca         1 1VM      -0.062200
     15 C18          2.5570    -1.7380    -0.1940 ca         1 1VM      -0.110000
     16 C19          3.8580    -2.1470    -0.4320 ca         1 1VM      -0.053300
     17 C22          4.1550    -3.6070    -0.6100 c3         1 1VM      -0.047800
     18 C20          4.9140    -1.1980    -0.5170 ca         1 1VM      -0.099300
     19 C23          6.3120    -1.6690    -0.7950 c3         1 1VM      -0.042800
     20 C21          4.6590     0.1520    -0.3560 ca         1 1VM      -0.044000
     21 C15          3.3490     0.5730    -0.1160 ca         1 1VM       0.062400
     22 N16          2.8420     1.8300     0.0700 nc         1 1VM      -0.516100
     23 C17          1.5600     1.6640     0.2500 cd         1 1VM       0.371800
     24 C24          0.6420     2.7720     0.4730 cd         1 1VM       0.408100
     25 N25          1.0720     3.9940     0.5930 nc         1 1VM      -0.593000
     26 C26          0.0470     4.8630     0.7730 cc         1 1VM       0.276900
     27 C27         -1.1960     4.3090     0.7910 cd         1 1VM      -0.282000
     28 S28         -1.0800     2.6200     0.5760 ss         1 1VM       0.009600
     29 H1          -5.4640    -2.4840     1.9980 hn         1 1VM       0.502500
     30 H2          -4.0770    -1.9430     2.8510 hn         1 1VM       0.502500
     31 H3          -4.5610    -1.7510    -3.4620 hn         1 1VM       0.497000
     32 H4          -5.8300    -2.2820    -2.4360 hn         1 1VM       0.497000
     33 H5          -2.1770    -1.1770     2.8380 ha         1 1VM       0.107000
     34 H6           0.0580    -0.2490     2.5190 ha         1 1VM       0.135000
     35 H7          -0.5020    -0.2740    -1.7340 ha         1 1VM       0.151000
     36 H8           1.7520    -2.4590    -0.1340 ha         1 1VM       0.123000
     37 H9           4.5550    -3.8170    -1.6050 hc         1 1VM       0.042033
     38 H10          4.9010    -3.9580     0.1060 hc         1 1VM       0.042033
     39 H11          3.2600    -4.2130    -0.4790 hc         1 1VM       0.042033
     40 H12          6.3880    -2.1420    -1.7770 hc         1 1VM       0.040033
     41 H13          7.0190    -0.8400    -0.7720 hc         1 1VM       0.040033
     42 H14          6.6450    -2.4090    -0.0660 hc         1 1VM       0.040033
     43 H15          5.4620     0.8760    -0.4170 ha         1 1VM       0.130000
     44 H16          0.2520     5.9170     0.8890 h4         1 1VM       0.045100
     45 H17         -2.1480     4.7970     0.9220 h4         1 1VM       0.161000
@<TRIPOS>BOND
     1     1     2 1   
     2     1    29 1   
     3     1    30 1   
     4     2     3 ar  
     5     2     4 ar  
     6     3     7 ar  
     7     4     5 ar  
     8     4     9 ar  
     9     5     6 ar  
    10     5    12 ar  
    11     6     7 ar  
    12     7     8 1   
    13     8    31 1   
    14     8    32 1   
    15     9    10 ar  
    16     9    33 1   
    17    10    11 ar  
    18    10    34 1   
    19    11    12 ar  
    20    11    13 1   
    21    12    35 1   
    22    13    14 1   
    23    13    23 1   
    24    14    15 ar  
    25    14    21 ar  
    26    15    16 ar  
    27    15    36 1   
    28    16    17 1   
    29    16    18 ar  
    30    17    37 1   
    31    17    38 1   
    32    17    39 1   
    33    18    19 1   
    34    18    20 ar  
    35    19    40 1   
    36    19    41 1   
    37    19    42 1   
    38    20    21 ar  
    39    20    43 1   
    40    21    22 1   
    41    22    23 2   
    42    23    24 1   
    43    24    25 2   
    44    24    28 1   
    45    25    26 1   
    46    26    27 2   
    47    26    44 1   
    48    27    28 1   
    49    27    45 1   
@<TRIPOS>SUBSTRUCTURE
     1 1VM         1 TEMP              0 ****  ****    0 ROOT
