@<TRIPOS>MOLECULE
1VM
   45    49     1     0     0
SMALL
No Charge or Current Charge


@<TRIPOS>ATOM
      1 N11         -4.1310    -2.0480     2.3430 nv         1 1VM      -1.077900
      2 C1          -3.7480    -1.7850     1.0670 ca         1 1VM       0.446900
      3 N2          -4.6620    -2.1150     0.1520 nb         1 1VM      -0.345000
      4 C6          -2.4990    -1.2230     0.7240 ca         1 1VM      -0.225000
      5 C5          -2.2440    -1.0200    -0.6530 ca         1 1VM       0.108000
      6 N4          -3.1720    -1.3580    -1.5730 nb         1 1VM      -0.293000
      7 C3          -4.3160    -1.8810    -1.1140 ca         1 1VM       0.433900
      8 N12         -5.2360    -2.2100    -2.0460 nv         1 1VM      -1.058900
      9 C7          -1.5240    -0.8680     1.6830 ca         1 1VM      -0.045000
     10 C8          -0.3030    -0.3110     1.2690 ca         1 1VM      -0.144000
     11 C9          -0.0500    -0.0930    -0.0990 ca         1 1VM       0.021800
     12 C10         -1.0170    -0.4630    -1.0500 ca         1 1VM      -0.102000
     13 N13          1.1600     0.4540    -0.5310 na         1 1VM      -0.096400
     14 C14          2.3230    -0.2630    -0.4750 ca         1 1VM      -0.062200
     15 C18          2.5640    -1.5710    -0.9140 ca         1 1VM      -0.110000
     16 C19          3.8600    -2.1090    -0.7490 ca         1 1VM      -0.053300
     17 C22          4.1410    -3.5310    -1.2220 c3         1 1VM      -0.047800
     18 C20          4.8790    -1.3170    -0.1460 ca         1 1VM      -0.099300
     19 C23          6.2900    -1.8650     0.0490 c3         1 1VM      -0.042800
     20 C21          4.5840    -0.0010     0.2840 ca         1 1VM      -0.044000
     21 C15          3.2880     0.5020     0.1070 ca         1 1VM       0.062400
     22 N16          2.8100     1.7480     0.4670 nc         1 1VM      -0.516100
     23 C17          1.5090     1.6900     0.0820 cd         1 1VM       0.371800
     24 C24          0.5810     2.8130     0.2430 cd         1 1VM       0.408100
     25 N25          0.9390     3.9550     0.8430 nc         1 1VM      -0.593000
     26 C26         -0.0930     4.8570     0.8340 cc         1 1VM       0.276900
     27 C27         -1.2460     4.4390     0.2240 cd         1 1VM      -0.282000
     28 S28         -1.0710     2.8100    -0.3960 ss         1 1VM       0.009600
     29 H1          -4.9500    -2.6360     2.4710 hn         1 1VM       0.502500
     30 H2          -3.4170    -2.1160     3.0620 hn         1 1VM       0.502500
     31 H3          -5.1190    -1.8340    -2.9830 hn         1 1VM       0.497000
     32 H4          -6.1900    -2.3780    -1.7380 hn         1 1VM       0.497000
     33 H5          -1.6970    -1.0160     2.7460 ha         1 1VM       0.107000
     34 H6           0.4450    -0.0520     2.0160 ha         1 1VM       0.135000
     35 H7          -0.8170    -0.3100    -2.1080 ha         1 1VM       0.151000
     36 H8           1.7680    -2.1530    -1.3720 ha         1 1VM       0.123000
     37 H9           4.9260    -3.5450    -1.9870 hc         1 1VM       0.042033
     38 H10          4.4670    -4.1670    -0.3910 hc         1 1VM       0.042033
     39 H11          3.2500    -3.9980    -1.6600 hc         1 1VM       0.042033
     40 H12          6.7430    -2.1380    -0.9110 hc         1 1VM       0.040033
     41 H13          6.9500    -1.1300     0.5240 hc         1 1VM       0.040033
     42 H14          6.2830    -2.7570     0.6860 hc         1 1VM       0.040033
     43 H15          5.3460     0.6190     0.7500 ha         1 1VM       0.130000
     44 H16          0.0670     5.8230     1.2960 h4         1 1VM       0.045100
     45 H17         -2.1720     4.9860     0.1040 h4         1 1VM       0.161000
@<TRIPOS>BOND
     1     1     2 1   
     2     1    29 1   
     3     1    30 1   
     4     2     3 ar  
     5     2     4 ar  
     6     3     7 ar  
     7     4     5 ar  
     8     4     9 ar  
     9     5     6 ar  
    10     5    12 ar  
    11     6     7 ar  
    12     7     8 1   
    13     8    31 1   
    14     8    32 1   
    15     9    10 ar  
    16     9    33 1   
    17    10    11 ar  
    18    10    34 1   
    19    11    12 ar  
    20    11    13 1   
    21    12    35 1   
    22    13    14 1   
    23    13    23 1   
    24    14    15 ar  
    25    14    21 ar  
    26    15    16 ar  
    27    15    36 1   
    28    16    17 1   
    29    16    18 ar  
    30    17    37 1   
    31    17    38 1   
    32    17    39 1   
    33    18    19 1   
    34    18    20 ar  
    35    19    40 1   
    36    19    41 1   
    37    19    42 1   
    38    20    21 ar  
    39    20    43 1   
    40    21    22 1   
    41    22    23 2   
    42    23    24 1   
    43    24    25 2   
    44    24    28 1   
    45    25    26 1   
    46    26    27 2   
    47    26    44 1   
    48    27    28 1   
    49    27    45 1   
@<TRIPOS>SUBSTRUCTURE
     1 1VM         1 TEMP              0 ****  ****    0 ROOT
