@<TRIPOS>MOLECULE
1VN
   45    49     1     0     0
SMALL
abcg2


@<TRIPOS>ATOM
      1 CL1         -0.3650     0.4410     2.6600 cl         1 1VN      -0.165000
      2 C8           0.6570    -0.1350     1.3970 ca         1 1VN       0.070000
      3 C7           1.9380    -0.5450     1.6610 ca         1 1VN      -0.039000
      4 C6           2.7600    -0.9920     0.6180 ca         1 1VN      -0.223000
      5 C1           4.1230    -1.4400     0.7940 ca         1 1VN       0.449900
      6 N11          4.6940    -1.4600     1.9980 nv         1 1VN      -1.073900
      7 C9           0.1750    -0.1520     0.0740 ca         1 1VN       0.027800
      8 C10          0.9650    -0.5930    -0.9530 ca         1 1VN      -0.093000
      9 C5           2.2880    -1.0230    -0.7110 ca         1 1VN       0.111000
     10 N4           3.0410    -1.4310    -1.7490 nb         1 1VN      -0.291000
     11 C3           4.2720    -1.8080    -1.4570 ca         1 1VN       0.438900
     12 N12          5.0510    -2.2450    -2.4620 nv         1 1VN      -1.059900
     13 N2           4.8410    -1.8290    -0.2340 nb         1 1VN      -0.345000
     14 N14         -1.1410     0.2820    -0.1950 na         1 1VN      -0.096400
     15 C18         -1.5950     1.5650    -0.3740 cc         1 1VN       0.380800
     16 C25         -0.7420     2.7440    -0.3710 cc         1 1VN       0.410100
     17 N29         -1.2410     3.9410    -0.4680 nd         1 1VN      -0.592000
     18 C28         -0.2680     4.8850    -0.4490 cd         1 1VN       0.277900
     19 C27          1.0030     4.4140    -0.3370 cc         1 1VN      -0.280000
     20 S26          0.9850     2.7110    -0.2510 ss         1 1VN       0.005600
     21 N17         -2.8850     1.6200    -0.5510 nd         1 1VN      -0.514100
     22 C16         -3.3210     0.3240    -0.4780 ca         1 1VN       0.065400
     23 C22         -4.6070    -0.2050    -0.5970 ca         1 1VN      -0.043000
     24 C21         -4.7870    -1.5710    -0.4740 ca         1 1VN      -0.098300
     25 C24         -6.1630    -2.1570    -0.6030 c3         1 1VN      -0.042800
     26 C20         -3.6790    -2.4260    -0.2240 ca         1 1VN      -0.052300
     27 C23         -3.8990    -3.9040    -0.0790 c3         1 1VN      -0.047800
     28 C19         -2.3980    -1.9090    -0.1130 ca         1 1VN      -0.109000
     29 C15         -2.2450    -0.5350    -0.2470 ca         1 1VN      -0.057200
     30 H1           2.2910    -0.5110     2.6830 ha         1 1VN       0.121000
     31 H2           4.1950    -1.2560     2.8450 hn         1 1VN       0.503000
     32 H3           5.6290    -1.8180     2.0930 hn         1 1VN       0.503000
     33 H4           0.5850    -0.5980    -1.9660 ha         1 1VN       0.154000
     34 H5           4.7440    -2.1180    -3.4110 hn         1 1VN       0.500500
     35 H6           6.0350    -2.3670    -2.3040 hn         1 1VN       0.500500
     36 H7          -0.5320     5.9300    -0.5200 h4         1 1VN       0.045100
     37 H8           1.9260     4.9710    -0.3000 h4         1 1VN       0.161000
     38 H9          -5.4520     0.4480    -0.7810 ha         1 1VN       0.130000
     39 H10         -6.2200    -2.8840    -1.4170 hc         1 1VN       0.040367
     40 H11         -6.4680    -2.6770     0.3070 hc         1 1VN       0.040367
     41 H12         -6.9020    -1.3820    -0.8020 hc         1 1VN       0.040367
     42 H13         -4.2990    -4.3430    -0.9960 hc         1 1VN       0.041700
     43 H14         -2.9700    -4.4210     0.1550 hc         1 1VN       0.041700
     44 H15         -4.6150    -4.1280     0.7140 hc         1 1VN       0.041700
     45 H16         -1.5510    -2.5590     0.0710 ha         1 1VN       0.123000
@<TRIPOS>BOND
     1     1     2 1   
     2     2     3 ar  
     3     2     7 ar  
     4     3     4 ar  
     5     3    30 1   
     6     4     5 ar  
     7     4     9 ar  
     8     5     6 1   
     9     5    13 ar  
    10     6    31 1   
    11     6    32 1   
    12     7     8 ar  
    13     7    14 1   
    14     8     9 ar  
    15     8    33 1   
    16     9    10 ar  
    17    10    11 ar  
    18    11    12 1   
    19    11    13 ar  
    20    12    34 1   
    21    12    35 1   
    22    14    15 1   
    23    14    29 1   
    24    15    16 1   
    25    15    21 2   
    26    16    17 2   
    27    16    20 1   
    28    17    18 1   
    29    18    19 2   
    30    18    36 1   
    31    19    20 1   
    32    19    37 1   
    33    21    22 1   
    34    22    23 ar  
    35    22    29 ar  
    36    23    24 ar  
    37    23    38 1   
    38    24    25 1   
    39    24    26 ar  
    40    25    39 1   
    41    25    40 1   
    42    25    41 1   
    43    26    27 1   
    44    26    28 ar  
    45    27    42 1   
    46    27    43 1   
    47    27    44 1   
    48    28    29 ar  
    49    28    45 1   
@<TRIPOS>SUBSTRUCTURE
     1 1VN         1 TEMP              0 ****  ****    0 ROOT
