@<TRIPOS>MOLECULE
1VN
   45    49     1     0     0
SMALL
No Charge or Current Charge


@<TRIPOS>ATOM
      1 Cl1         -0.4910     0.6610     2.5130 cl         1 1VN      -0.165000
      2 C8           0.5500     0.0090     1.2450 ca         1 1VN       0.070000
      3 C7           1.8360    -0.4340     1.5940 ca         1 1VN      -0.039000
      4 C6           2.6960    -0.9700     0.6090 ca         1 1VN      -0.223000
      5 C1           4.0000    -1.4310     0.8910 ca         1 1VN       0.449900
      6 N11          4.5520    -1.4190     2.1310 nv         1 1VN      -1.073900
      7 C9           0.1150    -0.0710    -0.0970 ca         1 1VN       0.027800
      8 C10          0.9710    -0.6160    -1.0710 ca         1 1VN      -0.093000
      9 C5           2.2610    -1.0620    -0.7350 ca         1 1VN       0.111000
     10 N4           3.0770    -1.5700    -1.6800 nb         1 1VN      -0.291000
     11 C3           4.2900    -1.9700    -1.2800 ca         1 1VN       0.438900
     12 N12          5.0980    -2.4730    -2.2380 nv         1 1VN      -1.059900
     13 N2           4.8030    -1.9310    -0.0500 nb         1 1VN      -0.345000
     14 N14         -1.1580     0.3520    -0.4810 na         1 1VN      -0.096400
     15 C18         -1.6250     1.6850    -0.3940 cc         1 1VN       0.380800
     16 C25         -0.7700     2.8750    -0.4110 cc         1 1VN       0.410100
     17 N29         -1.2410     4.1220    -0.2960 nd         1 1VN      -0.592000
     18 C28         -0.2180     5.0540    -0.3700 cd         1 1VN       0.277900
     19 C27          1.0320     4.5220    -0.5530 cc         1 1VN      -0.280000
     20 S26          0.9700     2.7900    -0.6470 ss         1 1VN       0.005600
     21 N17         -2.9820     1.6800    -0.3140 nd         1 1VN      -0.514100
     22 C16         -3.3330     0.3330    -0.3420 ca         1 1VN       0.065400
     23 C22         -4.6180    -0.2210    -0.2760 ca         1 1VN      -0.043000
     24 C21         -4.7610    -1.6300    -0.3110 ca         1 1VN      -0.098300
     25 C24         -6.1590    -2.2360    -0.2390 c3         1 1VN      -0.042800
     26 C20         -3.6050    -2.4590    -0.4120 ca         1 1VN      -0.052300
     27 C23         -3.7250    -3.9790    -0.4490 c3         1 1VN      -0.047800
     28 C19         -2.3230    -1.8680    -0.4770 ca         1 1VN      -0.109000
     29 C15         -2.2400    -0.4720    -0.4410 ca         1 1VN      -0.057200
     30 H1           2.1510    -0.3520     2.6310 ha         1 1VN       0.121000
     31 H2           3.9360    -1.3600     2.9360 hn         1 1VN       0.503000
     32 H3           5.4130    -1.9430     2.2670 hn         1 1VN       0.503000
     33 H4           0.6340    -0.6900    -2.1020 ha         1 1VN       0.154000
     34 H5           4.8490    -2.2990    -3.2080 hn         1 1VN       0.500500
     35 H6           6.0900    -2.5580    -2.0320 hn         1 1VN       0.500500
     36 H7          -0.4480     6.1090    -0.2850 h4         1 1VN       0.045100
     37 H8           1.9790     5.0370    -0.6420 h4         1 1VN       0.161000
     38 H9          -5.4860     0.4300    -0.1970 ha         1 1VN       0.130000
     39 H10         -6.3770    -2.8340    -1.1310 hc         1 1VN       0.040367
     40 H11         -6.2630    -2.8860     0.6380 hc         1 1VN       0.040367
     41 H12         -6.9350    -1.4640    -0.1660 hc         1 1VN       0.040367
     42 H13         -4.3200    -4.3070    -1.3100 hc         1 1VN       0.041700
     43 H14         -2.7450    -4.4630    -0.5270 hc         1 1VN       0.041700
     44 H15         -4.2060    -4.3600     0.4600 hc         1 1VN       0.041700
     45 H16         -1.4250    -2.4780    -0.5530 ha         1 1VN       0.123000
@<TRIPOS>BOND
     1     1     2 1   
     2     2     3 ar  
     3     2     7 ar  
     4     3     4 ar  
     5     3    30 1   
     6     4     5 ar  
     7     4     9 ar  
     8     5     6 1   
     9     5    13 ar  
    10     6    31 1   
    11     6    32 1   
    12     7     8 ar  
    13     7    14 1   
    14     8     9 ar  
    15     8    33 1   
    16     9    10 ar  
    17    10    11 ar  
    18    11    12 1   
    19    11    13 ar  
    20    12    34 1   
    21    12    35 1   
    22    14    15 1   
    23    14    29 1   
    24    15    16 1   
    25    15    21 2   
    26    16    17 2   
    27    16    20 1   
    28    17    18 1   
    29    18    19 2   
    30    18    36 1   
    31    19    20 1   
    32    19    37 1   
    33    21    22 1   
    34    22    23 ar  
    35    22    29 ar  
    36    23    24 ar  
    37    23    38 1   
    38    24    25 1   
    39    24    26 ar  
    40    25    39 1   
    41    25    40 1   
    42    25    41 1   
    43    26    27 1   
    44    26    28 ar  
    45    27    42 1   
    46    27    43 1   
    47    27    44 1   
    48    28    29 ar  
    49    28    45 1   
@<TRIPOS>SUBSTRUCTURE
     1 1VN         1 TEMP              0 ****  ****    0 ROOT
