@<TRIPOS>MOLECULE
1VO
   45    49     1     0     0
SMALL
No Charge or Current Charge


@<TRIPOS>ATOM
      1 N12          4.8820    -1.5000    -2.6220 nv         1 1VO      -1.062900
      2 C3           4.1180    -1.4890    -1.5090 ca         1 1VO       0.429900
      3 N2           4.6600    -2.0500    -0.4280 nb         1 1VO      -0.347000
      4 N4           2.9120    -0.9200    -1.6250 nb         1 1VO      -0.296000
      5 C5           2.1380    -0.9010    -0.5210 ca         1 1VO       0.115000
      6 C10          0.8580    -0.3220    -0.5570 ca         1 1VO      -0.115000
      7 C9           0.0490    -0.2900     0.5930 ca         1 1VO       0.063800
      8 C8           0.5180    -0.8590     1.7890 ca         1 1VO      -0.142000
      9 C7           1.7930    -1.4440     1.8440 ca         1 1VO      -0.045000
     10 C6           2.6080    -1.4670     0.6890 ca         1 1VO      -0.227000
     11 C1           3.8990    -2.0360     0.6690 ca         1 1VO       0.446900
     12 N11          4.4790    -2.6260     1.7460 nv         1 1VO      -1.079900
     13 N13         -1.2260     0.2700     0.5450 na         1 1VO      -0.077400
     14 C17         -1.4760     1.6200     0.2240 cc         1 1VO       0.397800
     15 C22         -0.5070     2.6960     0.4300 cc         1 1VO       0.255700
     16 N26          0.7450     2.5470     0.9940 nc         1 1VO      -0.616000
     17 C25          1.3710     3.7180     1.0460 cd         1 1VO       0.412300
     18 S24          0.4700     5.0930     0.4140 ss         1 1VO      -0.012400
     19 C23         -0.8390     3.9810     0.0640 cd         1 1VO      -0.220000
     20 N16         -2.7350     1.7470    -0.2720 nd         1 1VO      -0.568100
     21 C15         -3.2410     0.4480    -0.2670 ca         1 1VO       0.070400
     22 C21         -4.5040     0.0190    -0.6930 ca         1 1VO      -0.050000
     23 C20         -4.8230    -1.3590    -0.6130 ca         1 1VO      -0.096300
     24 C28         -6.1980    -1.8300    -1.0780 c3         1 1VO      -0.041800
     25 C19         -3.8630    -2.2840    -0.1060 ca         1 1VO      -0.059300
     26 C27         -4.1760    -3.7730    -0.0090 c3         1 1VO      -0.045800
     27 C18         -2.5970    -1.8180     0.3170 ca         1 1VO      -0.107000
     28 C14         -2.3350    -0.4460     0.2180 ca         1 1VO      -0.068200
     29 H1           5.6870    -2.1210    -2.6400 hn         1 1VO       0.494000
     30 H2           4.4340    -1.3070    -3.5140 hn         1 1VO       0.494000
     31 H3           0.4920     0.1070    -1.4860 ha         1 1VO       0.143000
     32 H4          -0.1070    -0.8450     2.6790 ha         1 1VO       0.131000
     33 H5           2.1340    -1.8690     2.7840 ha         1 1VO       0.103000
     34 H6           5.3130    -3.1840     1.5790 hn         1 1VO       0.500500
     35 H7           3.8880    -2.9240     2.5150 hn         1 1VO       0.500500
     36 H8           2.3670     3.8690     1.4430 h5         1 1VO       0.056100
     37 H9          -1.7600     4.3310    -0.3850 h4         1 1VO       0.178000
     38 H10         -5.2200     0.7390    -1.0790 ha         1 1VO       0.127000
     39 H11         -6.1120    -2.5510    -1.9000 hc         1 1VO       0.039367
     40 H12         -6.7470    -2.3130    -0.2610 hc         1 1VO       0.039367
     41 H13         -6.8140    -0.9970    -1.4370 hc         1 1VO       0.039367
     42 H14         -4.4050    -4.1940    -0.9950 hc         1 1VO       0.041033
     43 H15         -3.3320    -4.3410     0.4000 hc         1 1VO       0.041033
     44 H16         -5.0380    -3.9540     0.6450 hc         1 1VO       0.041033
     45 H17         -1.8460    -2.5000     0.7090 ha         1 1VO       0.122000
@<TRIPOS>BOND
     1     1     2 1   
     2     1    29 1   
     3     1    30 1   
     4     2     3 ar  
     5     2     4 ar  
     6     3    11 ar  
     7     4     5 ar  
     8     5     6 ar  
     9     5    10 ar  
    10     6     7 ar  
    11     6    31 1   
    12     7     8 ar  
    13     7    13 1   
    14     8     9 ar  
    15     8    32 1   
    16     9    10 ar  
    17     9    33 1   
    18    10    11 ar  
    19    11    12 1   
    20    12    34 1   
    21    12    35 1   
    22    13    14 1   
    23    13    28 1   
    24    14    15 1   
    25    14    20 2   
    26    15    16 1   
    27    15    19 2   
    28    16    17 2   
    29    17    18 1   
    30    17    36 1   
    31    18    19 1   
    32    19    37 1   
    33    20    21 1   
    34    21    22 ar  
    35    21    28 ar  
    36    22    23 ar  
    37    22    38 1   
    38    23    24 1   
    39    23    25 ar  
    40    24    39 1   
    41    24    40 1   
    42    24    41 1   
    43    25    26 1   
    44    25    27 ar  
    45    26    42 1   
    46    26    43 1   
    47    26    44 1   
    48    27    28 ar  
    49    27    45 1   
@<TRIPOS>SUBSTRUCTURE
     1 1VO         1 TEMP              0 ****  ****    0 ROOT
