@<TRIPOS>MOLECULE
1VO
   45    49     1     0     0
SMALL
abcg2


@<TRIPOS>ATOM
      1 N12          5.3770    -0.8680    -2.2180 nv         1 1VO      -1.062900
      2 C3           4.4230    -1.1110    -1.2960 ca         1 1VO       0.429900
      3 N2           4.8050    -1.8970    -0.2690 nb         1 1VO      -0.347000
      4 N4           3.2440    -0.5480    -1.4680 nb         1 1VO      -0.296000
      5 C5           2.3310    -0.7740    -0.4990 ca         1 1VO       0.115000
      6 C10          1.0480    -0.2050    -0.6260 ca         1 1VO      -0.115000
      7 C9           0.1090    -0.3970     0.3540 ca         1 1VO       0.063800
      8 C8           0.3790    -1.1810     1.4860 ca         1 1VO      -0.142000
      9 C7           1.6150    -1.7640     1.6110 ca         1 1VO      -0.045000
     10 C6           2.6030    -1.5700     0.6350 ca         1 1VO      -0.227000
     11 C1           3.9290    -2.1370     0.6830 ca         1 1VO       0.446900
     12 N11          4.3090    -2.9190     1.6950 nv         1 1VO      -1.079900
     13 N13         -1.1740     0.1830     0.2190 na         1 1VO      -0.077400
     14 C17         -1.4910     1.5050     0.0300 cc         1 1VO       0.397800
     15 C22         -0.5180     2.5840     0.1320 cc         1 1VO       0.255700
     16 N26          0.5460     2.4920     0.9840 nc         1 1VO      -0.616000
     17 C25          1.2610     3.5660     0.9430 cd         1 1VO       0.412300
     18 S24          0.6890     4.7740    -0.1410 ss         1 1VO      -0.012400
     19 C23         -0.6090     3.7530    -0.5640 cd         1 1VO      -0.220000
     20 N16         -2.7580     1.6930    -0.2180 nd         1 1VO      -0.568100
     21 C15         -3.3230     0.4430    -0.2010 ca         1 1VO       0.070400
     22 C21         -4.6450     0.0500    -0.4080 ca         1 1VO      -0.050000
     23 C20         -4.9680    -1.2940    -0.3410 ca         1 1VO      -0.096300
     24 C28         -6.3870    -1.7360    -0.5640 c3         1 1VO      -0.041800
     25 C19         -3.9660    -2.2610    -0.0670 ca         1 1VO      -0.059300
     26 C27         -4.3310    -3.7160     0.0020 c3         1 1VO      -0.045800
     27 C18         -2.6500    -1.8760     0.1410 ca         1 1VO      -0.107000
     28 C14         -2.3510    -0.5210     0.0770 ca         1 1VO      -0.068200
     29 H1           6.2070    -1.4350    -2.2200 hn         1 1VO       0.494000
     30 H2           5.1120    -0.4390    -3.0880 hn         1 1VO       0.494000
     31 H3           0.8230     0.3890    -1.5030 ha         1 1VO       0.143000
     32 H4          -0.3730    -1.3120     2.2520 ha         1 1VO       0.131000
     33 H5           1.8100    -2.3670     2.4890 ha         1 1VO       0.103000
     34 H6           5.2320    -3.3180     1.6920 hn         1 1VO       0.500500
     35 H7           3.6970    -3.1770     2.4460 hn         1 1VO       0.500500
     36 H8           2.1510     3.7240     1.5350 h5         1 1VO       0.056100
     37 H9          -1.3550     4.0410    -1.2870 h4         1 1VO       0.178000
     38 H10         -5.4080     0.7900    -0.6190 ha         1 1VO       0.127000
     39 H11         -6.4670    -2.4190    -1.4120 hc         1 1VO       0.039367
     40 H12         -6.7880    -2.2630     0.3030 hc         1 1VO       0.039367
     41 H13         -7.0360    -0.8850    -0.7630 hc         1 1VO       0.039367
     42 H14         -4.7670    -4.0660    -0.9350 hc         1 1VO       0.041033
     43 H15         -3.4590    -4.3330     0.2130 hc         1 1VO       0.041033
     44 H16         -5.0710    -3.9080     0.7820 hc         1 1VO       0.041033
     45 H17         -1.8880    -2.6190     0.3410 ha         1 1VO       0.122000
@<TRIPOS>BOND
     1     1     2 1   
     2     1    29 1   
     3     1    30 1   
     4     2     3 ar  
     5     2     4 ar  
     6     3    11 ar  
     7     4     5 ar  
     8     5     6 ar  
     9     5    10 ar  
    10     6     7 ar  
    11     6    31 1   
    12     7     8 ar  
    13     7    13 1   
    14     8     9 ar  
    15     8    32 1   
    16     9    10 ar  
    17     9    33 1   
    18    10    11 ar  
    19    11    12 1   
    20    12    34 1   
    21    12    35 1   
    22    13    14 1   
    23    13    28 1   
    24    14    15 1   
    25    14    20 2   
    26    15    16 1   
    27    15    19 2   
    28    16    17 2   
    29    17    18 1   
    30    17    36 1   
    31    18    19 1   
    32    19    37 1   
    33    20    21 1   
    34    21    22 ar  
    35    21    28 ar  
    36    22    23 ar  
    37    22    38 1   
    38    23    24 1   
    39    23    25 ar  
    40    24    39 1   
    41    24    40 1   
    42    24    41 1   
    43    25    26 1   
    44    25    27 ar  
    45    26    42 1   
    46    26    43 1   
    47    26    44 1   
    48    27    28 ar  
    49    27    45 1   
@<TRIPOS>SUBSTRUCTURE
     1 1VO         1 TEMP              0 ****  ****    0 ROOT
