@<TRIPOS>MOLECULE
1VP
   50    50     1     0     0
SMALL
abcg2


@<TRIPOS>ATOM
      1 C5          -3.7620    -0.6740     0.5300 c          1 1VP       0.599100
      2 C4          -5.0080    -0.6150    -0.3380 c3         1 1VP      -0.117100
      3 C3          -5.7200     0.6990    -0.1850 ca         1 1VP      -0.063300
      4 C16         -5.4400     1.7550    -1.0480 ca         1 1VP      -0.093500
      5 C17         -6.0730     2.9820    -0.8970 ca         1 1VP      -0.115500
      6 C           -6.9970     3.1680     0.1230 ca         1 1VP      -0.115000
      7 C1          -7.2810     2.1200     0.9890 ca         1 1VP      -0.115500
      8 C2          -6.6450     0.8950     0.8370 ca         1 1VP      -0.093500
      9 O           -3.7710    -0.3210     1.7000 o          1 1VP      -0.623100
     10 N           -2.6690    -1.1530    -0.0760 ns         1 1VP      -0.484900
     11 C6          -1.4170    -1.3280     0.6050 c3         1 1VP       0.005000
     12 C7          -0.3560    -1.7890    -0.3840 c          1 1VP       0.597100
     13 O1          -0.6510    -2.1400    -1.5190 o          1 1VP      -0.633100
     14 O2           5.9770     4.3050    -0.5190 o          1 1VP      -0.619100
     15 C13          6.5900     3.5150     0.1900 c          1 1VP       0.595100
     16 C14          7.9110     3.8740     0.8240 c3         1 1VP      -0.179100
     17 N2           6.1430     2.2760     0.4390 ns         1 1VP      -0.503900
     18 C12          4.8940     1.7640    -0.0860 c3         1 1VP       0.099000
     19 C11          4.7710     0.2720     0.1790 c3         1 1VP      -0.095400
     20 C9           3.3140    -1.7830    -0.0740 c3         1 1VP      -0.072400
     21 C8           2.0040    -2.3780    -0.5860 c3         1 1VP      -0.045300
     22 N1           0.8900    -1.7530     0.0910 ns         1 1VP      -0.448900
     23 C15          1.9880    -3.9260    -0.4460 c          1 1VP       0.715000
     24 O3           1.0870    -4.4340     0.2420 o          1 1VP      -0.719000
     25 O4           2.9010    -4.5170    -1.0550 o          1 1VP      -0.719000
     26 H19         -4.7650    -0.7990    -1.3860 hc         1 1VP       0.063700
     27 H20         -5.6570    -1.4350    -0.0190 hc         1 1VP       0.063700
     28 H23         -4.7210     1.6160    -1.8470 ha         1 1VP       0.115000
     29 H24         -5.8460     3.7910    -1.5790 ha         1 1VP       0.105500
     30 H25         -7.4940     4.1220     0.2390 ha         1 1VP       0.103000
     31 H22         -8.0020     2.2560     1.7860 ha         1 1VP       0.105500
     32 H21         -6.8780     0.0830     1.5140 ha         1 1VP       0.115000
     33 H18         -2.7080    -1.4440    -1.0420 hn         1 1VP       0.341500
     34 H16         -1.1000    -0.3980     1.0820 h1         1 1VP       0.062200
     35 H17         -1.4970    -2.0780     1.3980 h1         1 1VP       0.062200
     36 H12          8.6550     4.0320     0.0420 hc         1 1VP       0.054033
     37 H13          7.8110     4.8120     1.3690 hc         1 1VP       0.054033
     38 H14          8.2900     3.1160     1.5070 hc         1 1VP       0.054033
     39 H11          6.6660     1.6880     1.0670 hn         1 1VP       0.309500
     40 H9           4.0470     2.2900     0.3650 h1         1 1VP       0.050200
     41 H10          4.8480     1.9530    -1.1610 h1         1 1VP       0.050200
     42 H7           5.6010    -0.2540    -0.3020 hc         1 1VP       0.038200
     43 H8           4.8610     0.0840     1.2540 hc         1 1VP       0.038200
     44 H5           2.6230     0.2510     0.1600 hc         1 1VP       0.038200
     45 H6           3.3490    -0.0910    -1.3960 hc         1 1VP       0.038200
     46 H3           4.1350    -2.3070    -0.5650 hc         1 1VP       0.048700
     47 H4           3.4150    -1.9900     0.9990 hc         1 1VP       0.048700
     48 H2           1.9190    -2.1430    -1.6510 h1         1 1VP       0.064700
     49 H15          1.0080    -1.5530     1.0730 hn         1 1VP       0.293500
     50 C10          3.4460    -0.2860    -0.3230 c3         1 1VP      -0.076400
@<TRIPOS>BOND
     1     1     2 1   
     2     1     9 2   
     3     1    10 1   
     4     2     3 1   
     5     2    26 1   
     6     2    27 1   
     7     3     4 ar  
     8     3     8 ar  
     9     4     5 ar  
    10     4    28 1   
    11     5     6 ar  
    12     5    29 1   
    13     6     7 ar  
    14     6    30 1   
    15     7     8 ar  
    16     7    31 1   
    17     8    32 1   
    18    10    11 1   
    19    10    33 1   
    20    11    12 1   
    21    11    34 1   
    22    11    35 1   
    23    12    13 2   
    24    12    22 1   
    25    14    15 2   
    26    15    16 1   
    27    15    17 1   
    28    16    36 1   
    29    16    37 1   
    30    16    38 1   
    31    17    18 1   
    32    17    39 1   
    33    18    19 1   
    34    18    40 1   
    35    18    41 1   
    36    19    42 1   
    37    19    43 1   
    38    19    50 1   
    39    20    21 1   
    40    20    46 1   
    41    20    47 1   
    42    20    50 1   
    43    21    22 1   
    44    21    23 1   
    45    21    48 1   
    46    22    49 1   
    47    23    24 1   
    48    23    25 1   
    49    44    50 1   
    50    45    50 1   
@<TRIPOS>SUBSTRUCTURE
     1 1VP         1 TEMP              0 ****  ****    0 ROOT
