@<TRIPOS>MOLECULE
1VP
   50    50     1     0     0
SMALL
No Charge or Current Charge


@<TRIPOS>ATOM
      1 C5          -3.7740    -1.1010     0.2890 c          1 1VP       0.599100
      2 C4          -4.7000    -0.2600    -0.5970 c3         1 1VP      -0.117100
      3 C3          -4.6980     1.1980    -0.1490 ca         1 1VP      -0.063300
      4 C16         -3.7440     2.0980    -0.6640 ca         1 1VP      -0.093500
      5 C17         -3.7390     3.4410    -0.2480 ca         1 1VP      -0.115500
      6 C           -4.6880     3.8920     0.6850 ca         1 1VP      -0.115000
      7 C1          -5.6410     2.9990     1.2020 ca         1 1VP      -0.115500
      8 C2          -5.6460     1.6560     0.7870 ca         1 1VP      -0.093500
      9 O           -4.0940    -1.4840     1.4060 o          1 1VP      -0.623100
     10 N           -2.5430    -1.3890    -0.2540 ns         1 1VP      -0.484900
     11 C6          -1.4830    -2.1670     0.4240 c3         1 1VP       0.005000
     12 C7          -0.2010    -2.2700    -0.4330 c          1 1VP       0.597100
     13 O1          -0.1030    -1.7720    -1.5500 o          1 1VP      -0.633100
     14 O2           3.8070     4.5870    -0.6540 o          1 1VP      -0.619100
     15 C13          4.7150     4.0270    -0.0560 c          1 1VP       0.595100
     16 C14          5.9240     4.7750     0.4920 c3         1 1VP      -0.179100
     17 N2           4.7220     2.6710     0.1730 ns         1 1VP      -0.503900
     18 C12          3.6680     1.7540    -0.2610 c3         1 1VP       0.099000
     19 C11          3.9900     0.2980     0.1240 c3         1 1VP      -0.095400
     20 C9           3.2120    -2.1590     0.0670 c3         1 1VP      -0.072400
     21 C8           2.1730    -3.1970    -0.4330 c3         1 1VP      -0.045300
     22 N1           0.8290    -2.9740     0.1580 ns         1 1VP      -0.448900
     23 C15          2.6500    -4.6560    -0.1520 c          1 1VP       0.715000
     24 O3           2.6000    -5.0760     0.9970 o          1 1VP      -0.719000
     25 O4           2.9720    -5.3500    -1.1060 o          1 1VP      -0.719000
     26 H19         -4.3630    -0.3130    -1.6390 hc         1 1VP       0.063700
     27 H20         -5.7160    -0.6650    -0.5260 hc         1 1VP       0.063700
     28 H23         -3.0040     1.7590    -1.3860 ha         1 1VP       0.115000
     29 H24         -3.0000     4.1310    -0.6480 ha         1 1VP       0.105500
     30 H25         -4.6840     4.9310     1.0070 ha         1 1VP       0.103000
     31 H22         -6.3750     3.3470     1.9260 ha         1 1VP       0.105500
     32 H21         -6.3860     0.9710     1.1960 ha         1 1VP       0.115000
     33 H18         -2.3520    -1.0290    -1.1840 hn         1 1VP       0.341500
     34 H16         -1.2250    -1.6850     1.3760 h1         1 1VP       0.062200
     35 H17         -1.8460    -3.1820     0.6300 h1         1 1VP       0.062200
     36 H12          6.8370     4.3230     0.0890 hc         1 1VP       0.054033
     37 H13          5.8820     5.8510     0.2910 hc         1 1VP       0.054033
     38 H14          6.0160     4.5680     1.5650 hc         1 1VP       0.054033
     39 H11          5.5170     2.2960     0.6780 hn         1 1VP       0.309500
     40 H9           2.7210     2.0580     0.2040 h1         1 1VP       0.050200
     41 H10          3.5590     1.8310    -1.3510 h1         1 1VP       0.050200
     42 H7           4.9460     0.0090    -0.3300 hc         1 1VP       0.038200
     43 H8           4.1150     0.2330     1.2120 hc         1 1VP       0.038200
     44 H5           1.9420    -0.3950     0.1320 hc         1 1VP       0.038200
     45 H6           2.7690    -0.6300    -1.4090 hc         1 1VP       0.038200
     46 H3           4.1930    -2.4250    -0.3470 hc         1 1VP       0.048700
     47 H4           3.3010    -2.2330     1.1580 hc         1 1VP       0.048700
     48 H2           2.0920    -3.1020    -1.5230 h1         1 1VP       0.064700
     49 H15          0.6450    -3.3680     1.0740 hn         1 1VP       0.293500
     50 C10          2.8950    -0.6950    -0.3210 c3         1 1VP      -0.076400
@<TRIPOS>BOND
     1     1     2 1   
     2     1     9 2   
     3     1    10 1   
     4     2     3 1   
     5     2    26 1   
     6     2    27 1   
     7     3     4 ar  
     8     3     8 ar  
     9     4     5 ar  
    10     4    28 1   
    11     5     6 ar  
    12     5    29 1   
    13     6     7 ar  
    14     6    30 1   
    15     7     8 ar  
    16     7    31 1   
    17     8    32 1   
    18    10    11 1   
    19    10    33 1   
    20    11    12 1   
    21    11    34 1   
    22    11    35 1   
    23    12    13 2   
    24    12    22 1   
    25    14    15 2   
    26    15    16 1   
    27    15    17 1   
    28    16    36 1   
    29    16    37 1   
    30    16    38 1   
    31    17    18 1   
    32    17    39 1   
    33    18    19 1   
    34    18    40 1   
    35    18    41 1   
    36    19    42 1   
    37    19    43 1   
    38    19    50 1   
    39    20    21 1   
    40    20    46 1   
    41    20    47 1   
    42    20    50 1   
    43    21    22 1   
    44    21    23 1   
    45    21    48 1   
    46    22    49 1   
    47    23    24 1   
    48    23    25 1   
    49    44    50 1   
    50    45    50 1   
@<TRIPOS>SUBSTRUCTURE
     1 1VP         1 TEMP              0 ****  ****    0 ROOT
