@<TRIPOS>MOLECULE
1VQ
   26    26     1     0     0
SMALL
No Charge or Current Charge


@<TRIPOS>ATOM
      1 S1           3.3700    -0.4340     0.6000 s6         1 1VQ       1.407800
      2 O1           2.9830     0.3100     1.7980 o          1 1VQ      -0.526000
      3 O2           4.3160    -1.5440     0.6220 o          1 1VQ      -0.526000
      4 O3           2.0710    -0.8370    -0.2990 os         1 1VQ      -0.583700
      5 N1           3.9570     0.6150    -0.4710 n8         1 1VQ      -1.058100
      6 C1           0.7770    -0.5260     0.2450 c3         1 1VQ       0.177600
      7 C2          -0.2790    -1.0160    -0.7630 c3         1 1VQ       0.072600
      8 N3          -3.6550    -1.2480     0.6210 nc         1 1VQ      -0.676000
      9 C3          -2.4370     0.3660    -0.4110 cd         1 1VQ      -0.336200
     10 C4          -3.6380     0.0390     0.1600 cc         1 1VQ       0.366900
     11 C5          -2.4640    -1.7410     0.3410 cd         1 1VQ       0.456800
     12 C6          -2.0620    -3.1460     0.6920 c3         1 1VQ      -0.135400
     13 N2          -1.6680    -0.8000    -0.3000 na         1 1VQ      -0.140500
     14 O4          -0.9770     1.8440    -1.4170 o          1 1VQ      -0.396500
     15 O5          -3.0030     2.5200    -0.9740 o          1 1VQ      -0.396500
     16 H1           3.3140     0.3810    -1.2230 hn         1 1VQ       0.489000
     17 H2           4.8070     0.1180    -0.7170 hn         1 1VQ       0.489000
     18 H3           0.6190    -1.0340     1.2060 h1         1 1VQ       0.058200
     19 H4           0.6580     0.5550     0.3990 h1         1 1VQ       0.058200
     20 H5          -0.1320    -0.5060    -1.7220 h1         1 1VQ       0.096200
     21 H6          -0.1210    -2.0860    -0.9450 h1         1 1VQ       0.096200
     22 H7          -4.5160     0.6640     0.2760 h4         1 1VQ       0.071100
     23 H8          -1.1370    -3.1520     1.2790 hc         1 1VQ       0.066367
     24 H9          -2.8370    -3.6450     1.2840 hc         1 1VQ       0.066367
     25 H10         -1.8970    -3.7400    -0.2130 hc         1 1VQ       0.066367
     26 N4          -2.1170     1.6590    -0.9810 no         1 1VQ       0.736200
@<TRIPOS>BOND
     1     1     2 2   
     2     1     3 2   
     3     1     4 1   
     4     1     5 1   
     5     4     6 1   
     6     5    16 1   
     7     5    17 1   
     8     6     7 1   
     9     6    18 1   
    10     6    19 1   
    11     7    13 1   
    12     7    20 1   
    13     7    21 1   
    14     8    10 1   
    15     8    11 2   
    16     9    10 2   
    17     9    13 1   
    18     9    26 1   
    19    10    22 1   
    20    11    12 1   
    21    11    13 1   
    22    12    23 1   
    23    12    24 1   
    24    12    25 1   
    25    14    26 1   
    26    15    26 1   
@<TRIPOS>SUBSTRUCTURE
     1 1VQ         1 TEMP              0 ****  ****    0 ROOT
