@<TRIPOS>MOLECULE
1VQ
   26    26     1     0     0
SMALL
bcc


@<TRIPOS>ATOM
      1 S1           3.3130     0.2160    -0.2160 s6         1 1VQ       1.549400
      2 O1           4.2340     0.2080    -1.3220 o          1 1VQ      -0.596800
      3 O2           3.1010     1.4040     0.5770 o          1 1VQ      -0.596800
      4 O3           1.9190    -0.1930    -0.9060 os         1 1VQ      -0.560500
      5 N1           3.7210    -0.9800     0.8030 n8         1 1VQ      -0.947700
      6 C1           0.7530    -0.3090    -0.0830 c3         1 1VQ       0.154400
      7 C2          -0.4130    -0.4820    -1.0410 c3         1 1VQ       0.043300
      8 N3          -3.3180    -1.7160     0.6950 nc         1 1VQ      -0.676000
      9 C3          -2.5150     0.2920     0.2140 cd         1 1VQ      -0.350800
     10 C4          -3.5340    -0.3960     0.8190 cc         1 1VQ       0.432200
     11 C5          -2.1890    -1.8490     0.0220 cd         1 1VQ       0.456800
     12 C6          -1.5810    -3.1490    -0.3500 c3         1 1VQ      -0.135400
     13 N2          -1.6530    -0.6520    -0.3020 na         1 1VQ      -0.161900
     14 O4          -1.3440     2.1460    -0.3470 o          1 1VQ      -0.206500
     15 O5          -3.2610     2.3630     0.5840 o          1 1VQ      -0.206500
     16 H1           3.8340    -1.8930     0.3790 hn         1 1VQ       0.433800
     17 H2           3.2110    -1.0090     1.6780 hn         1 1VQ       0.433800
     18 H3           0.8410    -1.1790     0.5740 h1         1 1VQ       0.058200
     19 H4           0.6210     0.5820     0.5320 h1         1 1VQ       0.058200
     20 H5          -0.4980     0.3660    -1.7140 h1         1 1VQ       0.096200
     21 H6          -0.2710    -1.3710    -1.6530 h1         1 1VQ       0.096200
     22 H7          -4.3920     0.0080     1.3330 h4         1 1VQ       0.071100
     23 H8          -0.5810    -3.2690     0.0680 hc         1 1VQ       0.066367
     24 H9          -2.2060    -3.9510     0.0320 hc         1 1VQ       0.066367
     25 H10         -1.5030    -3.2620    -1.4320 hc         1 1VQ       0.066367
     26 N4          -2.3580     1.6870     0.1400 no         1 1VQ       0.356200
@<TRIPOS>BOND
     1     1     2 2   
     2     1     3 2   
     3     1     4 1   
     4     1     5 1   
     5     4     6 1   
     6     5    16 1   
     7     5    17 1   
     8     6     7 1   
     9     6    18 1   
    10     6    19 1   
    11     7    13 1   
    12     7    20 1   
    13     7    21 1   
    14     8    10 1   
    15     8    11 2   
    16     9    10 2   
    17     9    13 1   
    18     9    26 1   
    19    10    22 1   
    20    11    12 1   
    21    11    13 1   
    22    12    23 1   
    23    12    24 1   
    24    12    25 1   
    25    14    26 1   
    26    15    26 1   
@<TRIPOS>SUBSTRUCTURE
     1 1VQ         1 TEMP              0 ****  ****    0 ROOT
