@<TRIPOS>MOLECULE
1VR
   21    20     1     0     0
SMALL
No Charge or Current Charge


@<TRIPOS>ATOM
      1 O            2.3640     0.3630    -1.2910 o          1 1VR      -0.744000
      2 C            2.0430     0.1050    -0.1390 c          1 1VR       0.731000
      3 CA           0.6940     0.6450     0.3720 c3         1 1VR      -0.193400
      4 CB          -0.4790    -0.2840    -0.0420 c3         1 1VR       0.174500
      5 N           -0.3270    -1.5930     0.6170 n8         1 1VR      -0.956200
      6 CG          -1.9050     0.2920     0.2710 c3         1 1VR      -0.104700
      7 CD2         -2.1640     1.6760    -0.3800 c3         1 1VR      -0.081100
      8 CD1         -3.0430    -0.6840    -0.1390 c3         1 1VR      -0.081100
      9 OXT          2.7570    -0.5250     0.6300 o          1 1VR      -0.744000
     10 HA1          0.6860     0.7220     1.4670 hc         1 1VR       0.014200
     11 HA2          0.5080     1.5980    -0.1320 hc         1 1VR       0.014200
     12 HB          -0.4210    -0.4440    -1.1300 h1         1 1VR       0.073700
     13 H           -0.2890    -1.4430     1.6300 hn         1 1VR       0.364500
     14 H1          -1.1900    -2.1260     0.4790 hn         1 1VR       0.364500
     15 HG          -1.9790     0.4340     1.3570 hc         1 1VR       0.033700
     16 H3          -3.2040     1.9890    -0.2280 hc         1 1VR       0.022033
     17 H4          -1.5320     2.4530     0.0640 hc         1 1VR       0.022033
     18 H5          -1.9740     1.6430    -1.4590 hc         1 1VR       0.022033
     19 H6          -2.9880    -0.9180    -1.2090 hc         1 1VR       0.022033
     20 H7          -2.9970    -1.6230     0.4240 hc         1 1VR       0.022033
     21 H8          -4.0260    -0.2390     0.0600 hc         1 1VR       0.022033
@<TRIPOS>BOND
     1     1     2 1   
     2     2     3 1   
     3     2     9 1   
     4     3     4 1   
     5     3    10 1   
     6     3    11 1   
     7     4     5 1   
     8     4     6 1   
     9     4    12 1   
    10     5    13 1   
    11     5    14 1   
    12     6     7 1   
    13     6     8 1   
    14     6    15 1   
    15     7    16 1   
    16     7    17 1   
    17     7    18 1   
    18     8    19 1   
    19     8    20 1   
    20     8    21 1   
@<TRIPOS>SUBSTRUCTURE
     1 1VR         1 TEMP              0 ****  ****    0 ROOT
