@<TRIPOS>MOLECULE
1VR
   21    20     1     0     0
SMALL
bcc


@<TRIPOS>ATOM
      1 O            2.1230    -0.1100    -1.2650 o          1 1VR      -0.849300
      2 C            2.0140     0.1160    -0.0420 c          1 1VR       0.941600
      3 CA           0.6380     0.5890     0.4510 c3         1 1VR      -0.193400
      4 CB          -0.5160    -0.2640    -0.0650 c3         1 1VR       0.174500
      5 N           -0.3040    -1.6270     0.4130 n8         1 1VR      -0.845800
      6 CG          -1.8930     0.3350     0.2920 c3         1 1VR      -0.104700
      7 CD2         -2.1310     1.6650    -0.4200 c3         1 1VR      -0.081100
      8 CD1         -3.0310    -0.6280    -0.0390 c3         1 1VR      -0.081100
      9 OXT          2.9280     0.0290     0.8050 o          1 1VR      -0.849300
     10 HA1          0.6090     0.6040     1.5460 hc         1 1VR       0.014200
     11 HA2          0.5090     1.6270     0.1310 hc         1 1VR       0.014200
     12 HB          -0.4460    -0.2980    -1.1580 h1         1 1VR       0.073700
     13 H           -0.4740    -1.6650     1.4120 hn         1 1VR       0.309300
     14 H1          -0.9810    -2.2550    -0.0020 hn         1 1VR       0.309300
     15 HG          -1.9120     0.5160     1.3750 hc         1 1VR       0.033700
     16 H3          -3.1160     2.0690    -0.1770 hc         1 1VR       0.022033
     17 H4          -1.3970     2.4240    -0.1500 hc         1 1VR       0.022033
     18 H5          -2.0880     1.5360    -1.5050 hc         1 1VR       0.022033
     19 H6          -3.0080    -0.9170    -1.0930 hc         1 1VR       0.022033
     20 H7          -2.9900    -1.5400     0.5580 hc         1 1VR       0.022033
     21 H8          -4.0000    -0.1650     0.1530 hc         1 1VR       0.022033
@<TRIPOS>BOND
     1     1     2 1   
     2     2     3 1   
     3     2     9 1   
     4     3     4 1   
     5     3    10 1   
     6     3    11 1   
     7     4     5 1   
     8     4     6 1   
     9     4    12 1   
    10     5    13 1   
    11     5    14 1   
    12     6     7 1   
    13     6     8 1   
    14     6    15 1   
    15     7    16 1   
    16     7    17 1   
    17     7    18 1   
    18     8    19 1   
    19     8    20 1   
    20     8    21 1   
@<TRIPOS>SUBSTRUCTURE
     1 1VR         1 TEMP              0 ****  ****    0 ROOT
