@<TRIPOS>MOLECULE
1VS
   58    61     1     0     0
SMALL
No Charge or Current Charge


@<TRIPOS>ATOM
      1 C01          5.8710    -0.3300    -0.0510 ca         1 1VS      -0.036000
      2 C02          6.9040    -0.9070     0.7200 ca         1 1VS      -0.097500
      3 C03          8.2140    -0.4000     0.6600 ca         1 1VS      -0.114500
      4 C04          8.5150     0.6740    -0.1920 ca         1 1VS      -0.108000
      5 C05          7.5080     1.2300    -0.9950 ca         1 1VS      -0.114500
      6 C06          6.1980     0.7240    -0.9330 ca         1 1VS      -0.097500
      7 S            2.6550    -2.7300     0.0430 ss         1 1VS       0.314000
      8 C07          4.3320    -2.2490     0.1430 cc         1 1VS      -0.289000
      9 C08          4.5030    -0.8940    -0.0110 cd         1 1VS      -0.013000
     10 C09          3.2420    -0.1730     0.0050 cd         1 1VS      -0.254600
     11 C10          3.0240     1.3130     0.1220 c          1 1VS       0.643700
     12 N01          4.1220     2.0180     0.5360 ns         1 1VS      -0.489900
     13 C12          4.1580     3.4620     0.7520 c3         1 1VS       0.107000
     14 C11          5.6020     3.9750     0.8620 c3         1 1VS      -0.113100
     15 O3           1.9490     1.8740    -0.0540 o          1 1VS      -0.663100
     16 C15          2.1570    -1.0400    -0.0360 cc         1 1VS      -0.007400
     17 N02          0.8410    -0.5820    -0.0630 ns         1 1VS      -0.388100
     18 C13         -0.3430    -1.2980    -0.0780 c          1 1VS       0.596100
     19 C1          -1.6320    -0.4150    -0.1180 c3         1 1VS       0.091800
     20 N12         -2.8510    -1.0390     0.4960 n7         1 1VS      -0.850400
     21 C14         -4.0950    -0.2510     0.3700 c3         1 1VS       0.160800
     22 C23         -5.2710    -0.9650     1.0710 c3         1 1VS      -0.001200
     23 O11         -0.3830    -2.5240    -0.0690 o          1 1VS      -0.562100
     24 C16         -8.4410     0.7610     0.1430 ca         1 1VS      -0.047200
     25 C17         -7.3660    -0.0090    -0.2030 ca         1 1VS      -0.096800
     26 C18         -6.5640    -0.1960     0.9730 cc         1 1VS      -0.143400
     27 C19         -7.2190     0.4870     1.9940 cd         1 1VS      -0.153100
     28 N           -8.3950     1.0910     1.4850 na         1 1VS      -0.224700
     29 C20         -7.1860    -0.4830    -1.5110 ca         1 1VS      -0.062000
     30 C21         -8.1530    -0.1370    -2.4790 ca         1 1VS      -0.141000
     31 C22         -9.2650     0.6630    -2.1230 ca         1 1VS      -0.092000
     32 C           -9.4180     1.1200    -0.7960 ca         1 1VS      -0.128000
     33 H1           6.6890    -1.7360     1.3900 ha         1 1VS       0.121500
     34 H2           8.9960    -0.8420     1.2740 ha         1 1VS       0.115500
     35 H3           9.5300     1.0640    -0.2410 ha         1 1VS       0.114000
     36 H4           7.7430     2.0460    -1.6750 ha         1 1VS       0.115500
     37 H5           5.4390     1.1390    -1.5920 ha         1 1VS       0.121500
     38 H7           4.9640     1.4800     0.6900 hn         1 1VS       0.328500
     39 H8           3.6550     3.9650    -0.0840 h1         1 1VS       0.049700
     40 H9           3.6120     3.6950     1.6760 h1         1 1VS       0.049700
     41 H10          6.1540     3.7800    -0.0660 hc         1 1VS       0.043033
     42 H11          5.6090     5.0560     1.0430 hc         1 1VS       0.043033
     43 H12          6.1270     3.4830     1.6900 hc         1 1VS       0.043033
     44 H13          0.7230     0.4290    -0.0790 hn         1 1VS       0.369500
     45 H14         -1.4020     0.5310     0.3910 h1         1 1VS       0.054700
     46 H15         -1.8110    -0.1730    -1.1750 h1         1 1VS       0.054700
     47 H16         -2.9990    -1.9570     0.0540 hn         1 1VS       0.422000
     48 H18         -3.9650     0.7410     0.8240 h1         1 1VS       0.034200
     49 H19         -4.3450    -0.1010    -0.6890 h1         1 1VS       0.034200
     50 H20         -5.4050    -1.9590     0.6290 hc         1 1VS       0.052200
     51 H21         -5.0150    -1.1230     2.1250 hc         1 1VS       0.052200
     52 H22         -6.9320     0.5900     3.0380 h4         1 1VS       0.213000
     53 H23         -9.0680     1.6520     1.9990 hn         1 1VS       0.350000
     54 H24         -6.3300    -1.1000    -1.7740 ha         1 1VS       0.111000
     55 H25         -8.0430    -0.4870    -3.5020 ha         1 1VS       0.110000
     56 H26        -10.0070     0.9250    -2.8750 ha         1 1VS       0.110000
     57 H27        -10.2700     1.7320    -0.5130 ha         1 1VS       0.112000
     58 H6           5.0830    -3.0240     0.2120 h4         1 1VS       0.154000
@<TRIPOS>BOND
     1     1     2 ar  
     2     1     6 ar  
     3     1     9 1   
     4     2     3 ar  
     5     2    33 1   
     6     3     4 ar  
     7     3    34 1   
     8     4     5 ar  
     9     4    35 1   
    10     5     6 ar  
    11     5    36 1   
    12     6    37 1   
    13     7     8 1   
    14     7    16 1   
    15     8     9 2   
    16     8    58 1   
    17     9    10 1   
    18    10    11 1   
    19    10    16 2   
    20    11    12 1   
    21    11    15 2   
    22    12    13 1   
    23    12    38 1   
    24    13    14 1   
    25    13    39 1   
    26    13    40 1   
    27    14    41 1   
    28    14    42 1   
    29    14    43 1   
    30    16    17 1   
    31    17    18 1   
    32    17    44 1   
    33    18    19 1   
    34    18    23 2   
    35    19    20 1   
    36    19    45 1   
    37    19    46 1   
    38    20    21 1   
    39    20    47 1   
    40    21    22 1   
    41    21    48 1   
    42    21    49 1   
    43    22    26 1   
    44    22    50 1   
    45    22    51 1   
    46    24    25 ar  
    47    24    28 1   
    48    24    32 ar  
    49    25    26 1   
    50    25    29 ar  
    51    26    27 2   
    52    27    28 1   
    53    27    52 1   
    54    28    53 1   
    55    29    30 ar  
    56    29    54 1   
    57    30    31 ar  
    58    30    55 1   
    59    31    32 ar  
    60    31    56 1   
    61    32    57 1   
@<TRIPOS>SUBSTRUCTURE
     1 1VS         1 TEMP              0 ****  ****    0 ROOT
