@<TRIPOS>MOLECULE
1VS
   58    61     1     0     0
SMALL
bcc


@<TRIPOS>ATOM
      1 C01          5.7780    -0.4020     0.0330 ca         1 1VS      -0.036000
      2 C02          6.7240    -0.6250     1.0330 ca         1 1VS      -0.115500
      3 C03          8.0370    -0.2050     0.8660 ca         1 1VS      -0.132500
      4 C04          8.4180     0.4430    -0.3000 ca         1 1VS      -0.126000
      5 C05          7.4820     0.6670    -1.3030 ca         1 1VS      -0.132500
      6 C06          6.1720     0.2480    -1.1380 ca         1 1VS      -0.115500
      7 S            2.4120    -2.4970     0.4900 ss         1 1VS       0.024200
      8 C07          4.1000    -2.1800     0.4230 cc         1 1VS      -0.162100
      9 C08          4.3880    -0.8730     0.2000 cd         1 1VS      -0.013000
     10 C09          3.1990    -0.0690     0.0870 cd         1 1VS      -0.254600
     11 C10          3.1010     1.4040    -0.0450 c          1 1VS       0.710700
     12 N01          4.1440     2.1290     0.3700 ns         1 1VS      -0.556900
     13 C12          4.2030     3.5730     0.2550 c3         1 1VS       0.107000
     14 C11          5.5720     4.0690     0.6820 c3         1 1VS      -0.113100
     15 O3           2.0800     1.9390    -0.4900 o          1 1VS      -0.663100
     16 C15          2.0580    -0.8360     0.2030 cc         1 1VS       0.137500
     17 N02          0.7710    -0.3660     0.1360 ns         1 1VS      -0.455100
     18 C13         -0.3450    -1.1110     0.3500 c          1 1VS       0.663100
     19 C1          -1.6310    -0.3210     0.2510 c3         1 1VS       0.091800
     20 N12         -2.7870    -1.1550     0.4320 n7         1 1VS      -0.795200
     21 C14         -4.0210    -0.3950     0.4850 c3         1 1VS       0.160800
     22 C23         -5.2110    -1.3200     0.7220 c3         1 1VS      -0.001200
     23 O11         -0.2860    -2.3010     0.5930 o          1 1VS      -0.562100
     24 C16         -8.3940     0.5860     0.2100 ca         1 1VS      -0.047200
     25 C17         -7.2500    -0.0510    -0.3220 ca         1 1VS      -0.096800
     26 C18         -6.5090    -0.5850     0.7830 cc         1 1VS      -0.143400
     27 C19         -7.2170    -0.2540     1.9040 cd         1 1VS      -0.103100
     28 N           -8.3420     0.4460     1.5650 na         1 1VS      -0.174400
     29 C20         -7.0610    -0.0610    -1.7090 ca         1 1VS      -0.080000
     30 C21         -7.9970     0.5510    -2.5180 ca         1 1VS      -0.159000
     31 C22         -9.1280     1.1800    -1.9680 ca         1 1VS      -0.110000
     32 C           -9.3420     1.2060    -0.6030 ca         1 1VS      -0.146000
     33 H1           6.4250    -1.1180     1.9490 ha         1 1VS       0.139500
     34 H2           8.7610    -0.3820     1.6500 ha         1 1VS       0.133500
     35 H3           9.4410     0.7730    -0.4300 ha         1 1VS       0.132000
     36 H4           7.7760     1.1660    -2.2180 ha         1 1VS       0.133500
     37 H5           5.4490     0.4170    -1.9260 ha         1 1VS       0.139500
     38 H7           4.9420     1.6620     0.7670 hn         1 1VS       0.328500
     39 H8           4.0020     3.8670    -0.7770 h1         1 1VS       0.049700
     40 H9           3.4270     4.0310     0.8740 h1         1 1VS       0.049700
     41 H10          6.3610     3.6340     0.0680 hc         1 1VS       0.043033
     42 H11          5.6260     5.1520     0.5770 hc         1 1VS       0.043033
     43 H12          5.7750     3.8260     1.7260 hc         1 1VS       0.043033
     44 H13          0.7010     0.6190    -0.1080 hn         1 1VS       0.369500
     45 H14         -1.6120     0.4390     1.0400 h1         1 1VS       0.054700
     46 H15         -1.6180     0.2400    -0.6990 h1         1 1VS       0.054700
     47 H16         -2.8430    -1.8270    -0.3240 hn         1 1VS       0.366800
     48 H18         -3.9530     0.3160     1.3140 h1         1 1VS       0.034200
     49 H19         -4.1930     0.2060    -0.4220 h1         1 1VS       0.034200
     50 H20         -5.2470    -2.0670    -0.0790 hc         1 1VS       0.052200
     51 H21         -5.0500    -1.8720     1.6510 hc         1 1VS       0.052200
     52 H22         -6.9990    -0.4720     2.9380 h4         1 1VS       0.163000
     53 H23         -9.0280     0.7850     2.2170 hn         1 1VS       0.299700
     54 H24         -6.1940    -0.5450    -2.1430 ha         1 1VS       0.129000
     55 H25         -7.8630     0.5490    -3.5920 ha         1 1VS       0.128000
     56 H26         -9.8460     1.6520    -2.6270 ha         1 1VS       0.128000
     57 H27        -10.2150     1.6880    -0.1820 ha         1 1VS       0.130000
     58 H6           4.8030    -2.9940     0.5120 h4         1 1VS       0.172000
@<TRIPOS>BOND
     1     1     2 ar  
     2     1     6 ar  
     3     1     9 1   
     4     2     3 ar  
     5     2    33 1   
     6     3     4 ar  
     7     3    34 1   
     8     4     5 ar  
     9     4    35 1   
    10     5     6 ar  
    11     5    36 1   
    12     6    37 1   
    13     7     8 1   
    14     7    16 1   
    15     8     9 2   
    16     8    58 1   
    17     9    10 1   
    18    10    11 1   
    19    10    16 2   
    20    11    12 1   
    21    11    15 2   
    22    12    13 1   
    23    12    38 1   
    24    13    14 1   
    25    13    39 1   
    26    13    40 1   
    27    14    41 1   
    28    14    42 1   
    29    14    43 1   
    30    16    17 1   
    31    17    18 1   
    32    17    44 1   
    33    18    19 1   
    34    18    23 2   
    35    19    20 1   
    36    19    45 1   
    37    19    46 1   
    38    20    21 1   
    39    20    47 1   
    40    21    22 1   
    41    21    48 1   
    42    21    49 1   
    43    22    26 1   
    44    22    50 1   
    45    22    51 1   
    46    24    25 ar  
    47    24    28 1   
    48    24    32 ar  
    49    25    26 1   
    50    25    29 ar  
    51    26    27 2   
    52    27    28 1   
    53    27    52 1   
    54    28    53 1   
    55    29    30 ar  
    56    29    54 1   
    57    30    31 ar  
    58    30    55 1   
    59    31    32 ar  
    60    31    56 1   
    61    32    57 1   
@<TRIPOS>SUBSTRUCTURE
     1 1VS         1 TEMP              0 ****  ****    0 ROOT
