@<TRIPOS>MOLECULE
1VT
   61    64     1     0     0
SMALL
No Charge or Current Charge


@<TRIPOS>ATOM
      1 C01         -2.7760     1.3870    -0.2490 cc         1 1VT      -0.239600
      2 C02         -2.9220     0.1470     0.5720 c          1 1VT       0.633700
      3 O01         -3.5160     0.0850     1.6370 o          1 1VT      -0.572100
      4 N01         -2.3250    -0.9610     0.0190 ns         1 1VT      -0.525900
      5 C1          -2.1460    -2.2510     0.6800 c3         1 1VT       0.142300
      6 C03         -0.6860    -2.6660     0.6040 ca         1 1VT      -0.108300
      7 C04          0.2520    -2.1040     1.4920 ca         1 1VT      -0.104000
      8 C05          1.6090    -2.4610     1.4080 ca         1 1VT      -0.112000
      9 C06          2.0350    -3.3810     0.4360 ca         1 1VT      -0.104000
     10 C07          1.1040    -3.9440    -0.4520 ca         1 1VT      -0.112000
     11 C08         -0.2530    -3.5870    -0.3700 ca         1 1VT      -0.104000
     12 C09         -1.6940     1.6600    -1.0780 cd         1 1VT      -0.045400
     13 N           -0.5500     0.8600    -1.1580 ns         1 1VT      -0.390100
     14 C10          0.5600     1.0030    -1.9750 c          1 1VT       0.603100
     15 O            0.6710     1.8810    -2.8190 o          1 1VT      -0.572100
     16 C11          1.6370    -0.0610    -1.7770 c3         1 1VT      -0.161400
     17 C2           2.8410     0.5300    -1.0300 c3         1 1VT       0.170800
     18 N23          3.8500    -0.5210    -0.8260 n7         1 1VT      -0.868400
     19 C25          5.0330    -0.1260    -0.0440 c3         1 1VT       0.206100
     20 C12          5.9820    -1.3060     0.1050 ca         1 1VT      -0.094300
     21 C13          7.0590    -1.4750    -0.7890 ca         1 1VT      -0.098000
     22 C14          7.9330    -2.5670    -0.6490 ca         1 1VT      -0.114000
     23 C15          7.7360    -3.4980     0.3850 ca         1 1VT      -0.107000
     24 C16          6.6640    -3.3370     1.2790 ca         1 1VT      -0.114000
     25 C17          5.7900    -2.2440     1.1400 ca         1 1VT      -0.098000
     26 S           -1.8350     3.2580    -1.8490 ss         1 1VT       0.313000
     27 C18         -3.3380     3.5510    -0.9760 cd         1 1VT      -0.289000
     28 C19         -3.6910     2.4930    -0.1720 cc         1 1VT       0.014000
     29 C20         -5.0400     2.5660     0.4260 ca         1 1VT      -0.014000
     30 C21         -5.5500     3.8000     0.8930 ca         1 1VT      -0.090000
     31 C22         -6.8410     3.8860     1.4430 ca         1 1VT      -0.111000
     32 C23         -7.6500     2.7430     1.5220 ca         1 1VT      -0.105000
     33 C24         -7.1680     1.5150     1.0430 ca         1 1VT      -0.111000
     34 C           -5.8760     1.4290     0.4960 ca         1 1VT      -0.090000
     35 H1          -2.0050    -0.8630    -0.9360 hn         1 1VT       0.315500
     36 H2          -2.4560    -2.1890     1.7310 h1         1 1VT       0.063700
     37 H3          -2.7810    -2.9980     0.1830 h1         1 1VT       0.063700
     38 H4          -0.0700    -1.3850     2.2430 ha         1 1VT       0.113500
     39 H5           2.3310    -2.0180     2.0910 ha         1 1VT       0.117500
     40 H6           3.0870    -3.6500     0.3660 ha         1 1VT       0.117000
     41 H7           1.4350    -4.6540    -1.2080 ha         1 1VT       0.117500
     42 H8          -0.9660    -4.0230    -1.0670 ha         1 1VT       0.113500
     43 H9          -0.4660     0.0800    -0.5170 hn         1 1VT       0.336500
     44 H10          1.2420    -0.8990    -1.1930 hc         1 1VT       0.072700
     45 H11          1.9710    -0.4110    -2.7600 hc         1 1VT       0.072700
     46 H12          3.2590     1.3660    -1.6090 h1         1 1VT       0.049200
     47 H13          2.5010     0.9280    -0.0630 h1         1 1VT       0.049200
     48 H14          4.1740    -0.8490    -1.7430 hn         1 1VT       0.408000
     49 H16          5.5600     0.7040    -0.5360 h1         1 1VT       0.040700
     50 H17          4.7340     0.2220     0.9540 h1         1 1VT       0.040700
     51 H18          7.2170    -0.7590    -1.5930 ha         1 1VT       0.117000
     52 H19          8.7620    -2.6910    -1.3420 ha         1 1VT       0.112500
     53 H20          8.4130    -4.3430     0.4930 ha         1 1VT       0.112000
     54 H21          6.5100    -4.0570     2.0790 ha         1 1VT       0.112500
     55 H22          4.9610    -2.1260     1.8330 ha         1 1VT       0.117000
     56 H23         -3.8850     4.4640    -1.1700 h4         1 1VT       0.156000
     57 H24         -4.9370     4.6960     0.8560 ha         1 1VT       0.111500
     58 H25         -7.2120     4.8410     1.8090 ha         1 1VT       0.111000
     59 H26         -8.6500     2.8100     1.9460 ha         1 1VT       0.111000
     60 H27         -7.7990     0.6300     1.0870 ha         1 1VT       0.111000
     61 H28         -5.5440     0.4760     0.0940 ha         1 1VT       0.111500
@<TRIPOS>BOND
     1     1     2 1   
     2     1    12 2   
     3     1    28 1   
     4     2     3 2   
     5     2     4 1   
     6     4     5 1   
     7     4    35 1   
     8     5     6 1   
     9     5    36 1   
    10     5    37 1   
    11     6     7 ar  
    12     6    11 ar  
    13     7     8 ar  
    14     7    38 1   
    15     8     9 ar  
    16     8    39 1   
    17     9    10 ar  
    18     9    40 1   
    19    10    11 ar  
    20    10    41 1   
    21    11    42 1   
    22    12    13 1   
    23    12    26 1   
    24    13    14 1   
    25    13    43 1   
    26    14    15 2   
    27    14    16 1   
    28    16    17 1   
    29    16    44 1   
    30    16    45 1   
    31    17    18 1   
    32    17    46 1   
    33    17    47 1   
    34    18    19 1   
    35    18    48 1   
    36    19    20 1   
    37    19    49 1   
    38    19    50 1   
    39    20    21 ar  
    40    20    25 ar  
    41    21    22 ar  
    42    21    51 1   
    43    22    23 ar  
    44    22    52 1   
    45    23    24 ar  
    46    23    53 1   
    47    24    25 ar  
    48    24    54 1   
    49    25    55 1   
    50    26    27 1   
    51    27    28 2   
    52    27    56 1   
    53    28    29 1   
    54    29    30 ar  
    55    29    34 ar  
    56    30    31 ar  
    57    30    57 1   
    58    31    32 ar  
    59    31    58 1   
    60    32    33 ar  
    61    32    59 1   
    62    33    34 ar  
    63    33    60 1   
    64    34    61 1   
@<TRIPOS>SUBSTRUCTURE
     1 1VT         1 TEMP              0 ****  ****    0 ROOT
