@<TRIPOS>MOLECULE
1VT
   61    64     1     0     0
SMALL
abcg2


@<TRIPOS>ATOM
      1 C01         -2.7180     1.5750     0.1620 cc         1 1VT      -0.239600
      2 C02         -3.0230     0.3080     0.8800 c          1 1VT       0.633700
      3 O01         -3.6160     0.2970     1.9450 o          1 1VT      -0.572100
      4 N01         -2.5360    -0.8010     0.2800 ns         1 1VT      -0.525900
      5 C1          -2.6190    -2.1350     0.8380 c3         1 1VT       0.142300
      6 C03         -1.3560    -2.9000     0.5370 ca         1 1VT      -0.108300
      7 C04         -0.1290    -2.4350     1.0100 ca         1 1VT      -0.104000
      8 C05          1.0460    -3.1070     0.7110 ca         1 1VT      -0.112000
      9 C06          1.0070    -4.2700    -0.0510 ca         1 1VT      -0.104000
     10 C07         -0.2110    -4.7490    -0.5110 ca         1 1VT      -0.112000
     11 C08         -1.3860    -4.0630    -0.2210 ca         1 1VT      -0.104000
     12 C09         -1.4530     1.9310    -0.2370 cd         1 1VT      -0.045400
     13 N           -0.3200     1.1530    -0.1210 ns         1 1VT      -0.390100
     14 C10          0.9250     1.4900    -0.5570 c          1 1VT       0.603100
     15 O            1.1430     2.5620    -1.0870 o          1 1VT      -0.572100
     16 C11          1.9590     0.4250    -0.3040 c3         1 1VT      -0.161400
     17 C2           3.3610     0.8060    -0.7420 c3         1 1VT       0.170800
     18 N23          4.2670    -0.2810    -0.4240 n7         1 1VT      -0.868400
     19 C25          5.6380     0.0040    -0.7990 c3         1 1VT       0.206100
     20 C12          6.5600    -1.1260    -0.4240 ca         1 1VT      -0.094300
     21 C13          7.5300    -1.5770    -1.3140 ca         1 1VT      -0.098000
     22 C14          8.4060    -2.5960    -0.9580 ca         1 1VT      -0.114000
     23 C15          8.3190    -3.1820     0.2960 ca         1 1VT      -0.107000
     24 C16          7.3480    -2.7440     1.1910 ca         1 1VT      -0.114000
     25 C17          6.4760    -1.7260     0.8320 ca         1 1VT      -0.098000
     26 S           -1.3990     3.5400    -0.8530 ss         1 1VT       0.313000
     27 C18         -3.0870     3.7300    -0.5920 cd         1 1VT      -0.289000
     28 C19         -3.6680     2.6280    -0.0480 cc         1 1VT       0.014000
     29 C20         -5.1130     2.5220     0.2100 ca         1 1VT      -0.014000
     30 C21         -5.8030     3.5730     0.8140 ca         1 1VT      -0.090000
     31 C22         -7.1740     3.4950     1.0180 ca         1 1VT      -0.111000
     32 C23         -7.8750     2.3630     0.6250 ca         1 1VT      -0.105000
     33 C24         -7.1960     1.3090     0.0270 ca         1 1VT      -0.111000
     34 C           -5.8270     1.3880    -0.1790 ca         1 1VT      -0.090000
     35 H1          -2.2790    -0.7350    -0.6950 hn         1 1VT       0.315500
     36 H2          -2.7630    -2.0460     1.9150 h1         1 1VT       0.063700
     37 H3          -3.4890    -2.6650     0.4410 h1         1 1VT       0.063700
     38 H4          -0.0940    -1.5440     1.6270 ha         1 1VT       0.113500
     39 H5           1.9930    -2.7250     1.0690 ha         1 1VT       0.117500
     40 H6           1.9230    -4.7990    -0.2810 ha         1 1VT       0.117000
     41 H7          -0.2500    -5.6560    -1.1010 ha         1 1VT       0.117500
     42 H8          -2.3330    -4.4370    -0.5910 ha         1 1VT       0.113500
     43 H9          -0.4410     0.2510     0.3170 hn         1 1VT       0.336500
     44 H10          1.9610     0.1790     0.7620 hc         1 1VT       0.072700
     45 H11          1.6410    -0.4860    -0.8250 hc         1 1VT       0.072700
     46 H12          3.3640     1.0660    -1.8100 h1         1 1VT       0.049200
     47 H13          3.6910     1.6960    -0.2010 h1         1 1VT       0.049200
     48 H14          3.9660    -1.1170    -0.9110 hn         1 1VT       0.408000
     49 H16          5.7540     0.2260    -1.8710 h1         1 1VT       0.040700
     50 H17          5.9490     0.9110    -0.2700 h1         1 1VT       0.040700
     51 H18          7.5970    -1.1330    -2.3010 ha         1 1VT       0.117000
     52 H19          9.1500    -2.9380    -1.6670 ha         1 1VT       0.112500
     53 H20          8.9990    -3.9760     0.5760 ha         1 1VT       0.112000
     54 H21          7.2730    -3.1950     2.1720 ha         1 1VT       0.112500
     55 H22          5.7200    -1.3910     1.5320 ha         1 1VT       0.117000
     56 H23         -3.5740     4.6430    -0.9020 h4         1 1VT       0.156000
     57 H24         -5.2620     4.4530     1.1390 ha         1 1VT       0.111500
     58 H25         -7.6920     4.3200     1.4900 ha         1 1VT       0.111000
     59 H26         -8.9440     2.3010     0.7850 ha         1 1VT       0.111000
     60 H27         -7.7340     0.4260    -0.2920 ha         1 1VT       0.111000
     61 H28         -5.3160     0.5660    -0.6660 ha         1 1VT       0.111500
@<TRIPOS>BOND
     1     1     2 1   
     2     1    12 2   
     3     1    28 1   
     4     2     3 2   
     5     2     4 1   
     6     4     5 1   
     7     4    35 1   
     8     5     6 1   
     9     5    36 1   
    10     5    37 1   
    11     6     7 ar  
    12     6    11 ar  
    13     7     8 ar  
    14     7    38 1   
    15     8     9 ar  
    16     8    39 1   
    17     9    10 ar  
    18     9    40 1   
    19    10    11 ar  
    20    10    41 1   
    21    11    42 1   
    22    12    13 1   
    23    12    26 1   
    24    13    14 1   
    25    13    43 1   
    26    14    15 2   
    27    14    16 1   
    28    16    17 1   
    29    16    44 1   
    30    16    45 1   
    31    17    18 1   
    32    17    46 1   
    33    17    47 1   
    34    18    19 1   
    35    18    48 1   
    36    19    20 1   
    37    19    49 1   
    38    19    50 1   
    39    20    21 ar  
    40    20    25 ar  
    41    21    22 ar  
    42    21    51 1   
    43    22    23 ar  
    44    22    52 1   
    45    23    24 ar  
    46    23    53 1   
    47    24    25 ar  
    48    24    54 1   
    49    25    55 1   
    50    26    27 1   
    51    27    28 2   
    52    27    56 1   
    53    28    29 1   
    54    29    30 ar  
    55    29    34 ar  
    56    30    31 ar  
    57    30    57 1   
    58    31    32 ar  
    59    31    58 1   
    60    32    33 ar  
    61    32    59 1   
    62    33    34 ar  
    63    33    60 1   
    64    34    61 1   
@<TRIPOS>SUBSTRUCTURE
     1 1VT         1 TEMP              0 ****  ****    0 ROOT
