@<TRIPOS>MOLECULE
1VV
   58    62     1     0     0
SMALL
bcc


@<TRIPOS>ATOM
      1 C16          6.5090     0.6310    -0.6870 ca         1 1VV      -0.126000
      2 C17          6.1330     1.9350    -0.3780 ca         1 1VV      -0.126000
      3 C3           2.5460    -3.2800     2.2510 ca         1 1VV      -0.133000
      4 C4           2.7150    -1.9160     2.4440 ca         1 1VV      -0.138000
      5 C15          5.5580    -0.3420    -0.9920 ca         1 1VV      -0.069000
      6 C18          4.7910     2.3130    -0.3610 ca         1 1VV      -0.069000
      7 C2           1.5050    -3.7440     1.4580 ca         1 1VV      -0.123000
      8 C21          1.8470    -1.0210     1.8350 ca         1 1VV      -0.116000
      9 C19          4.2350     0.0440    -0.9710 ca         1 1VV      -0.140600
     10 C13          3.8610     1.3410    -0.6630 ca         1 1VV      -0.140600
     11 C1           0.6470    -2.8500     0.8310 ca         1 1VV      -0.057300
     12 C5           0.8220    -1.4820     1.0170 ca         1 1VV      -0.071300
     13 C12          3.0050    -0.7350    -1.2440 c          1 1VV       0.722600
     14 C14          2.3830     1.4170    -0.7210 c          1 1VV       0.722600
     15 C23         -2.3870    -0.0320     0.0010 c          1 1VV       0.712100
     16 C31         -4.3930     0.8220     1.9850 c          1 1VV       0.935600
     17 C9          -0.4990    -3.2740    -0.0310 c6         1 1VV      -0.049100
     18 C27         -4.3970     0.4980    -2.3950 c6         1 1VV      -0.069400
     19 C28         -5.4620     1.3730    -1.7450 c6         1 1VV      -0.074400
     20 C26         -4.1830    -0.7720    -1.5820 c6         1 1VV      -0.069400
     21 C30         -5.0910     1.7330    -0.3110 c6         1 1VV      -0.054400
     22 C8          -1.7150    -2.4040     0.2440 c6         1 1VV       0.117000
     23 C6          -0.0420    -0.5160     0.2560 c6         1 1VV       0.141000
     24 C25         -3.8250    -0.4980    -0.1100 c6         1 1VV      -0.100700
     25 C29         -4.8020     0.4920     0.5340 c6         1 1VV      -0.173700
     26 N11          1.9460     0.1500    -1.0730 n          1 1VV      -0.515400
     27 N7          -1.4160    -0.9830     0.1010 n          1 1VV      -0.484800
     28 O22          2.9050    -1.8900    -1.5670 o          1 1VV      -0.549500
     29 O20          1.6710     2.3660    -0.5070 o          1 1VV      -0.549500
     30 O24         -2.0870     1.1530    -0.0670 o          1 1VV      -0.597100
     31 H1           7.5590     0.3700    -0.6910 ha         1 1VV       0.131000
     32 H2           6.8960     2.6660    -0.1460 ha         1 1VV       0.131000
     33 H3           3.2160    -3.9830     2.7290 ha         1 1VV       0.117000
     34 H4           3.5160    -1.5490     3.0730 ha         1 1VV       0.121000
     35 H5           5.8520    -1.3540    -1.2340 ha         1 1VV       0.153000
     36 H6           4.4980     3.3260    -0.1210 ha         1 1VV       0.153000
     37 H7           1.3610    -4.8090     1.3220 ha         1 1VV       0.121000
     38 H8           1.9650     0.0440     2.0050 ha         1 1VV       0.135000
     39 H9          -0.2270    -3.2120    -1.0890 hc         1 1VV       0.049200
     40 H10         -0.7680    -4.3140     0.1590 hc         1 1VV       0.049200
     41 H11         -4.6910     0.2330    -3.4130 hc         1 1VV       0.027200
     42 H12         -3.4600     1.0570    -2.4790 hc         1 1VV       0.027200
     43 H13         -5.6190     2.2810    -2.3320 hc         1 1VV       0.016200
     44 H14         -6.4160     0.8320    -1.7490 hc         1 1VV       0.016200
     45 H15         -5.1090    -1.3570    -1.5960 hc         1 1VV       0.020700
     46 H16         -3.4230    -1.4030    -2.0530 hc         1 1VV       0.020700
     47 H17         -4.2230     2.3930    -0.3160 hc         1 1VV       0.055700
     48 H18         -5.9070     2.2920     0.1520 hc         1 1VV       0.055700
     49 H19         -2.4990    -2.6870    -0.4550 h1         1 1VV       0.050200
     50 H20         -2.0830    -2.6130     1.2540 h1         1 1VV       0.050200
     51 H21         -0.0660     0.4290     0.8000 h1         1 1VV       0.104700
     52 H22         -3.9320    -1.4350     0.4350 hc         1 1VV       0.060700
     53 H23         -5.7550    -0.0550     0.6060 hc         1 1VV       0.021700
     54 C10          0.5560    -0.2330    -1.1410 c3         1 1VV       0.093000
     55 O32         -3.5610     0.0640     2.5250 o          1 1VV      -0.839800
     56 H24          0.4860    -1.1170    -1.7730 h1         1 1VV       0.074200
     57 H25         -0.0100     0.5630    -1.6220 h1         1 1VV       0.074200
     58 O33         -4.9480     1.8020     2.5220 o          1 1VV      -0.839800
@<TRIPOS>BOND
     1     1     2 ar  
     2     1     5 ar  
     3     1    31 1   
     4     2     6 ar  
     5     2    32 1   
     6     3     4 ar  
     7     3     7 ar  
     8     3    33 1   
     9     4     8 ar  
    10     4    34 1   
    11     5     9 ar  
    12     5    35 1   
    13     6    10 ar  
    14     6    36 1   
    15     7    11 ar  
    16     7    37 1   
    17     8    12 ar  
    18     8    38 1   
    19     9    10 ar  
    20     9    13 1   
    21    10    14 1   
    22    11    12 ar  
    23    11    17 1   
    24    12    23 1   
    25    13    26 1   
    26    13    28 2   
    27    14    26 1   
    28    14    29 2   
    29    15    24 1   
    30    15    27 1   
    31    15    30 2   
    32    16    25 1   
    33    16    55 1   
    34    16    58 1   
    35    17    22 1   
    36    17    39 1   
    37    17    40 1   
    38    18    19 1   
    39    18    20 1   
    40    18    41 1   
    41    18    42 1   
    42    19    21 1   
    43    19    43 1   
    44    19    44 1   
    45    20    24 1   
    46    20    45 1   
    47    20    46 1   
    48    21    25 1   
    49    21    47 1   
    50    21    48 1   
    51    22    27 1   
    52    22    49 1   
    53    22    50 1   
    54    23    27 1   
    55    23    51 1   
    56    23    54 1   
    57    24    25 1   
    58    24    52 1   
    59    25    53 1   
    60    26    54 1   
    61    54    56 1   
    62    54    57 1   
@<TRIPOS>SUBSTRUCTURE
     1 1VV         1 TEMP              0 ****  ****    0 ROOT
