@<TRIPOS>MOLECULE
1VV
   58    62     1     0     0
SMALL
No Charge or Current Charge


@<TRIPOS>ATOM
      1 C16          6.8890     0.3840    -0.6860 ca         1 1VV      -0.108000
      2 C17          6.5340     1.7530    -0.7720 ca         1 1VV      -0.108000
      3 C3           2.0940    -2.7910     3.0340 ca         1 1VV      -0.115000
      4 C4           2.2950    -1.4020     2.9600 ca         1 1VV      -0.120000
      5 C15          5.9020    -0.6220    -0.7650 ca         1 1VV      -0.051000
      6 C18          5.1860     2.1380    -0.9390 ca         1 1VV      -0.051000
      7 C2           1.2210    -3.4230     2.1320 ca         1 1VV      -0.105000
      8 C21          1.6260    -0.6450     1.9820 ca         1 1VV      -0.098000
      9 C19          4.5690    -0.2190    -0.9290 ca         1 1VV      -0.140600
     10 C13          4.2210     1.1240    -1.0140 ca         1 1VV      -0.140600
     11 C1           0.5500    -2.6640     1.1570 ca         1 1VV      -0.057300
     12 C5           0.7530    -1.2780     1.0740 ca         1 1VV      -0.071300
     13 C12          3.3270    -1.0360    -1.0460 c          1 1VV       0.580100
     14 C14          2.7420     1.2170    -1.1860 c          1 1VV       0.580100
     15 C23         -2.3900     0.0150    -0.5280 c          1 1VV       0.645100
     16 C31         -4.3320    -0.4180     1.8530 c          1 1VV       0.725000
     17 C9          -0.4040    -3.3010     0.1630 c6         1 1VV      -0.049100
     18 C27         -4.9180     1.3810    -2.2190 c6         1 1VV      -0.069400
     19 C28         -5.8840     1.7610    -1.0670 c6         1 1VV      -0.074400
     20 C26         -4.4620    -0.0990    -2.1190 c6         1 1VV      -0.069400
     21 C30         -5.2720     1.4580     0.3270 c6         1 1VV      -0.054400
     22 C8          -1.6400    -2.4010    -0.0840 c6         1 1VV       0.117000
     23 C6           0.0430    -0.4800    -0.0290 c6         1 1VV       0.141000
     24 C25         -3.8810    -0.4340    -0.7160 c6         1 1VV      -0.100700
     25 C29         -4.8540    -0.0350     0.4430 c6         1 1VV      -0.173700
     26 N11          2.2950    -0.1040    -1.1740 n          1 1VV      -0.381400
     27 N7          -1.3640    -0.9380    -0.2720 n          1 1VV      -0.417800
     28 O22          3.2300    -2.2540    -1.0470 o          1 1VV      -0.474000
     29 O20          2.0620     2.2250    -1.3020 o          1 1VV      -0.474000
     30 O24         -2.0950     1.2000    -0.6340 o          1 1VV      -0.597100
     31 H1           7.9320     0.1050    -0.5580 ha         1 1VV       0.113000
     32 H2           7.3070     2.5150    -0.7100 ha         1 1VV       0.113000
     33 H3           2.6140    -3.3760     3.7890 ha         1 1VV       0.099000
     34 H4           2.9710    -0.9120     3.6570 ha         1 1VV       0.103000
     35 H5           6.1660    -1.6760    -0.6990 ha         1 1VV       0.135000
     36 H6           4.9060     3.1870    -1.0070 ha         1 1VV       0.135000
     37 H7           1.0680    -4.4980     2.1930 ha         1 1VV       0.103000
     38 H8           1.7930     0.4280     1.9250 ha         1 1VV       0.117000
     39 H9           0.1230    -3.4740    -0.7850 hc         1 1VV       0.049200
     40 H10         -0.7340    -4.2880     0.5150 hc         1 1VV       0.049200
     41 H11         -5.4130     1.5490    -3.1850 hc         1 1VV       0.027200
     42 H12         -4.0460     2.0480    -2.2050 hc         1 1VV       0.027200
     43 H13         -6.1400     2.8270    -1.1350 hc         1 1VV       0.016200
     44 H14         -6.8270     1.2080    -1.1820 hc         1 1VV       0.016200
     45 H15         -5.3250    -0.7490    -2.3190 hc         1 1VV       0.020700
     46 H16         -3.7210    -0.3210    -2.9000 hc         1 1VV       0.020700
     47 H17         -4.4080     2.1130     0.5030 hc         1 1VV       0.055700
     48 H18         -6.0050     1.7000     1.1090 hc         1 1VV       0.055700
     49 H19         -2.1640    -2.7890    -0.9690 h1         1 1VV       0.050200
     50 H20         -2.3170    -2.5100     0.7750 h1         1 1VV       0.050200
     51 H21          0.0180     0.5620     0.3200 h1         1 1VV       0.104700
     52 H22         -3.8870    -1.5250    -0.6810 hc         1 1VV       0.060700
     53 H23         -5.7650    -0.6320     0.2880 hc         1 1VV       0.021700
     54 C10          0.8760    -0.4800    -1.3440 c3         1 1VV       0.093000
     55 O32         -3.3630     0.1750     2.3000 o          1 1VV      -0.734500
     56 H24          0.8260    -1.4790    -1.7930 h1         1 1VV       0.074200
     57 H25          0.4050     0.2140    -2.0520 h1         1 1VV       0.074200
     58 O33         -4.9420    -1.2750     2.4740 o          1 1VV      -0.734500
@<TRIPOS>BOND
     1     1     2 ar  
     2     1     5 ar  
     3     1    31 1   
     4     2     6 ar  
     5     2    32 1   
     6     3     4 ar  
     7     3     7 ar  
     8     3    33 1   
     9     4     8 ar  
    10     4    34 1   
    11     5     9 ar  
    12     5    35 1   
    13     6    10 ar  
    14     6    36 1   
    15     7    11 ar  
    16     7    37 1   
    17     8    12 ar  
    18     8    38 1   
    19     9    10 ar  
    20     9    13 1   
    21    10    14 1   
    22    11    12 ar  
    23    11    17 1   
    24    12    23 1   
    25    13    26 1   
    26    13    28 2   
    27    14    26 1   
    28    14    29 2   
    29    15    24 1   
    30    15    27 1   
    31    15    30 2   
    32    16    25 1   
    33    16    55 1   
    34    16    58 1   
    35    17    22 1   
    36    17    39 1   
    37    17    40 1   
    38    18    19 1   
    39    18    20 1   
    40    18    41 1   
    41    18    42 1   
    42    19    21 1   
    43    19    43 1   
    44    19    44 1   
    45    20    24 1   
    46    20    45 1   
    47    20    46 1   
    48    21    25 1   
    49    21    47 1   
    50    21    48 1   
    51    22    27 1   
    52    22    49 1   
    53    22    50 1   
    54    23    27 1   
    55    23    51 1   
    56    23    54 1   
    57    24    25 1   
    58    24    52 1   
    59    25    53 1   
    60    26    54 1   
    61    54    56 1   
    62    54    57 1   
@<TRIPOS>SUBSTRUCTURE
     1 1VV         1 TEMP              0 ****  ****    0 ROOT
