@<TRIPOS>MOLECULE
1VW
   61    66     1     0     0
SMALL
abcg2


@<TRIPOS>ATOM
      1 C5         -20.1920    38.4360   -36.8880 c6         1 1VW      -0.065400
      2 C6         -20.0330    36.9470   -37.1860 c6         1 1VW      -0.078400
      3 C11        -21.9340    38.0340   -33.4530 cc         1 1VW       0.414800
      4 C7         -19.6300    36.1810   -35.9280 c6         1 1VW      -0.074400
      5 C8         -20.6650    36.3610   -34.8210 c6         1 1VW      -0.064400
      6 C9         -20.9060    37.8470   -34.5210 c6         1 1VW      -0.069000
      7 C3         -21.2150    38.7180   -35.7670 c6         1 1VW      -0.134700
      8 C2         -22.6450    38.5330   -36.2650 c          1 1VW       0.597100
      9 N12        -22.4670    39.2120   -33.0840 na         1 1VW      -0.235700
     10 N13        -23.3480    39.0150   -32.0920 nc         1 1VW      -0.200800
     11 N14        -23.3470    37.7480   -31.8630 nd         1 1VW      -0.041000
     12 N15        -22.4830    37.1070   -32.6880 nd         1 1VW      -0.378000
     13 N16        -23.2380    39.5820   -36.8950 n          1 1VW      -0.412800
     14 C17        -22.6580    40.9050   -37.1180 c6         1 1VW       0.098000
     15 C18        -23.3570    41.9290   -36.2370 c6         1 1VW      -0.048100
     16 C19        -24.8580    41.8080   -36.3270 ca         1 1VW      -0.071300
     17 C20        -25.4580    40.6420   -36.8130 ca         1 1VW      -0.089300
     18 C21        -26.8510    40.5480   -36.8570 ca         1 1VW      -0.098000
     19 C22        -27.6500    41.5980   -36.4310 ca         1 1VW      -0.105000
     20 C23        -27.0560    42.7640   -35.9520 ca         1 1VW      -0.101000
     21 C24        -25.6730    42.8600   -35.9010 ca         1 1VW      -0.107000
     22 C25        -24.6370    39.4670   -37.3000 c6         1 1VW       0.122000
     23 C27        -24.7620    39.3080   -38.8320 c3         1 1VW       0.105000
     24 N28        -23.9380    38.2240   -39.3210 n          1 1VW      -0.392400
     25 C29        -22.6870    38.4040   -39.9160 c          1 1VW       0.590100
     26 O30        -22.1940    39.4780   -40.1880 o          1 1VW      -0.489500
     27 C31        -22.1330    37.0410   -40.1240 ca         1 1VW      -0.140600
     28 C32        -20.9230    36.6410   -40.6540 ca         1 1VW      -0.046000
     29 C33        -20.6550    35.2710   -40.6800 ca         1 1VW      -0.100000
     30 C34        -21.5790    34.3480   -40.1910 ca         1 1VW      -0.100000
     31 C35        -22.8050    34.7620   -39.6660 ca         1 1VW      -0.046000
     32 C36        -23.0600    36.1190   -39.6440 ca         1 1VW      -0.140600
     33 C37        -24.2380    36.8710   -39.1380 c          1 1VW       0.590100
     34 O38        -25.2730    36.4520   -38.6680 o          1 1VW      -0.489500
     35 H1         -19.2280    38.8430   -36.5680 hc         1 1VW       0.048700
     36 H2         -20.4800    38.9800   -37.7900 hc         1 1VW       0.048700
     37 H3         -20.9710    36.5420   -37.5720 hc         1 1VW       0.049200
     38 H4         -19.2870    36.8150   -37.9720 hc         1 1VW       0.049200
     39 H5         -19.5160    35.1180   -36.1500 hc         1 1VW       0.042200
     40 H6         -18.6540    36.5410   -35.5820 hc         1 1VW       0.042200
     41 H7         -21.6050    35.8990   -35.1170 hc         1 1VW       0.073700
     42 H8         -20.3320    35.8690   -33.9050 hc         1 1VW       0.073700
     43 H9         -19.9700    38.2520   -34.1200 hc         1 1VW       0.059700
     44 H10        -21.0880    39.7560   -35.4600 hc         1 1VW       0.045700
     45 H11        -22.2920    40.1440   -33.4320 hn         1 1VW       0.377000
     46 H12        -21.5900    40.8910   -36.9360 h1         1 1VW       0.062200
     47 H13        -22.7910    41.1580   -38.1710 h1         1 1VW       0.062200
     48 H14        -23.0420    41.7870   -35.1980 hc         1 1VW       0.051200
     49 H15        -23.0450    42.9350   -36.5260 hc         1 1VW       0.051200
     50 H16        -27.3100    39.6360   -37.2210 ha         1 1VW       0.121000
     51 H17        -28.7290    41.5080   -36.4680 ha         1 1VW       0.119000
     52 H18        -27.6700    43.5910   -35.6180 ha         1 1VW       0.116000
     53 H19        -25.2090    43.7650   -35.5270 ha         1 1VW       0.111000
     54 H20        -25.0130    38.5560   -36.8430 h1         1 1VW       0.111700
     55 H21        -24.4480    40.2140   -39.3450 h1         1 1VW       0.073200
     56 H22        -25.8010    39.1090   -39.0890 h1         1 1VW       0.073200
     57 H23        -20.2040    37.3610   -41.0200 ha         1 1VW       0.139000
     58 H24        -19.7130    34.9180   -41.0800 ha         1 1VW       0.123000
     59 H25        -21.3400    33.2920   -40.2190 ha         1 1VW       0.123000
     60 H26        -23.5240    34.0480   -39.2860 ha         1 1VW       0.139000
     61 O1         -23.2370    37.4640   -36.1060 o          1 1VW      -0.585100
@<TRIPOS>BOND
     1     1     2 1   
     2     1     7 1   
     3     1    35 1   
     4     1    36 1   
     5     2     4 1   
     6     2    37 1   
     7     2    38 1   
     8     3     6 1   
     9     3     9 1   
    10     3    12 2   
    11     4     5 1   
    12     4    39 1   
    13     4    40 1   
    14     5     6 1   
    15     5    41 1   
    16     5    42 1   
    17     6     7 1   
    18     6    43 1   
    19     7     8 1   
    20     7    44 1   
    21     8    13 1   
    22     8    61 2   
    23     9    10 1   
    24     9    45 1   
    25    10    11 2   
    26    11    12 1   
    27    13    14 1   
    28    13    22 1   
    29    14    15 1   
    30    14    46 1   
    31    14    47 1   
    32    15    16 1   
    33    15    48 1   
    34    15    49 1   
    35    16    17 ar  
    36    16    21 ar  
    37    17    18 ar  
    38    17    22 1   
    39    18    19 ar  
    40    18    50 1   
    41    19    20 ar  
    42    19    51 1   
    43    20    21 ar  
    44    20    52 1   
    45    21    53 1   
    46    22    23 1   
    47    22    54 1   
    48    23    24 1   
    49    23    55 1   
    50    23    56 1   
    51    24    25 1   
    52    24    33 1   
    53    25    26 2   
    54    25    27 1   
    55    27    28 ar  
    56    27    32 ar  
    57    28    29 ar  
    58    28    57 1   
    59    29    30 ar  
    60    29    58 1   
    61    30    31 ar  
    62    30    59 1   
    63    31    32 ar  
    64    31    60 1   
    65    32    33 1   
    66    33    34 2   
@<TRIPOS>SUBSTRUCTURE
     1 1VW         1 TEMP              0 ****  ****    0 ROOT
