@<TRIPOS>MOLECULE
1VW
   61    66     1     0     0
SMALL
No Charge or Current Charge


@<TRIPOS>ATOM
      1 C5         -20.1230    38.5370   -36.8070 c6         1 1VW      -0.065400
      2 C6         -19.8910    37.0500   -37.1690 c6         1 1VW      -0.078400
      3 C11        -21.8450    37.9580   -33.3160 cc         1 1VW       0.414800
      4 C7         -19.4600    36.2350   -35.9250 c6         1 1VW      -0.074400
      5 C8         -20.5050    36.3420   -34.7850 c6         1 1VW      -0.064400
      6 C9         -20.7930    37.8280   -34.4050 c6         1 1VW      -0.069000
      7 C3         -21.1710    38.6760   -35.6670 c6         1 1VW      -0.134700
      8 C2         -22.6320    38.5190   -36.1880 c          1 1VW       0.597100
      9 N12        -22.1780    39.1240   -32.6860 na         1 1VW      -0.235700
     10 N13        -23.1440    38.9150   -31.7580 nc         1 1VW      -0.200800
     11 N14        -23.3840    37.6360   -31.8260 nd         1 1VW      -0.041000
     12 N15        -22.5960    37.0210   -32.7690 nd         1 1VW      -0.378000
     13 N16        -23.2970    39.6080   -36.8100 n          1 1VW      -0.412800
     14 C17        -22.7130    40.9510   -37.0610 c6         1 1VW       0.098000
     15 C18        -23.4440    42.0010   -36.2080 c6         1 1VW      -0.048100
     16 C19        -24.9630    41.9040   -36.3750 ca         1 1VW      -0.071300
     17 C20        -25.5630    40.7210   -36.8740 ca         1 1VW      -0.089300
     18 C21        -26.9660    40.6590   -36.9970 ca         1 1VW      -0.098000
     19 C22        -27.7630    41.7590   -36.6380 ca         1 1VW      -0.105000
     20 C23        -27.1650    42.9290   -36.1470 ca         1 1VW      -0.101000
     21 C24        -25.7690    43.0000   -36.0130 ca         1 1VW      -0.107000
     22 C25        -24.7130    39.4960   -37.2690 c6         1 1VW       0.122000
     23 C27        -24.8150    39.2150   -38.7980 c3         1 1VW       0.105000
     24 N28        -23.9420    38.1150   -39.2580 n          1 1VW      -0.392400
     25 C29        -22.6760    38.3160   -39.8070 c          1 1VW       0.590100
     26 O30        -22.1130    39.3820   -40.0030 o          1 1VW      -0.489500
     27 C31        -22.1660    36.9480   -40.1070 ca         1 1VW      -0.140600
     28 C32        -20.9360    36.5430   -40.6440 ca         1 1VW      -0.046000
     29 C33        -20.7140    35.1580   -40.8060 ca         1 1VW      -0.100000
     30 C34        -21.7080    34.2190   -40.4370 ca         1 1VW      -0.100000
     31 C35        -22.9410    34.6490   -39.8990 ca         1 1VW      -0.046000
     32 C36        -23.1410    36.0270   -39.7440 ca         1 1VW      -0.140600
     33 C37        -24.3130    36.7730   -39.2020 c          1 1VW       0.590100
     34 O38        -25.3730    36.3170   -38.7970 o          1 1VW      -0.489500
     35 H1         -19.1700    38.9840   -36.4880 hc         1 1VW       0.048700
     36 H2         -20.4400    39.0940   -37.6980 hc         1 1VW       0.048700
     37 H3         -20.8090    36.6180   -37.5920 hc         1 1VW       0.049200
     38 H4         -19.1230    36.9720   -37.9510 hc         1 1VW       0.049200
     39 H5         -19.3200    35.1810   -36.2030 hc         1 1VW       0.042200
     40 H6         -18.4840    36.5940   -35.5680 hc         1 1VW       0.042200
     41 H7         -21.4290    35.8330   -35.0920 hc         1 1VW       0.073700
     42 H8         -20.1390    35.7970   -33.9040 hc         1 1VW       0.073700
     43 H9         -19.8540    38.2380   -34.0070 hc         1 1VW       0.059700
     44 H10        -21.0820    39.7240   -35.3620 hc         1 1VW       0.045700
     45 H11        -21.7780    40.0390   -32.8520 hn         1 1VW       0.377000
     46 H12        -21.6340    40.9950   -36.8780 h1         1 1VW       0.062200
     47 H13        -22.8510    41.2050   -38.1210 h1         1 1VW       0.062200
     48 H14        -23.1870    41.8560   -35.1500 hc         1 1VW       0.051200
     49 H15        -23.0930    43.0040   -36.4830 hc         1 1VW       0.051200
     50 H16        -27.4440    39.7550   -37.3690 ha         1 1VW       0.121000
     51 H17        -28.8450    41.7020   -36.7380 ha         1 1VW       0.119000
     52 H18        -27.7830    43.7800   -35.8660 ha         1 1VW       0.116000
     53 H19        -25.3130    43.9080   -35.6260 ha         1 1VW       0.111000
     54 H20        -25.1750    38.6320   -36.7680 h1         1 1VW       0.111700
     55 H21        -24.5520    40.1320   -39.3410 h1         1 1VW       0.073200
     56 H22        -25.8560    38.9760   -39.0500 h1         1 1VW       0.073200
     57 H23        -20.1760    37.2710   -40.9220 ha         1 1VW       0.139000
     58 H24        -19.7690    34.8100   -41.2180 ha         1 1VW       0.123000
     59 H25        -21.5200    33.1550   -40.5680 ha         1 1VW       0.123000
     60 H26        -23.7080    33.9330   -39.6100 ha         1 1VW       0.139000
     61 O1         -23.1910    37.4340   -36.1110 o          1 1VW      -0.585100
@<TRIPOS>BOND
     1     1     2 1   
     2     1     7 1   
     3     1    35 1   
     4     1    36 1   
     5     2     4 1   
     6     2    37 1   
     7     2    38 1   
     8     3     6 1   
     9     3     9 1   
    10     3    12 2   
    11     4     5 1   
    12     4    39 1   
    13     4    40 1   
    14     5     6 1   
    15     5    41 1   
    16     5    42 1   
    17     6     7 1   
    18     6    43 1   
    19     7     8 1   
    20     7    44 1   
    21     8    13 1   
    22     8    61 2   
    23     9    10 1   
    24     9    45 1   
    25    10    11 2   
    26    11    12 1   
    27    13    14 1   
    28    13    22 1   
    29    14    15 1   
    30    14    46 1   
    31    14    47 1   
    32    15    16 1   
    33    15    48 1   
    34    15    49 1   
    35    16    17 ar  
    36    16    21 ar  
    37    17    18 ar  
    38    17    22 1   
    39    18    19 ar  
    40    18    50 1   
    41    19    20 ar  
    42    19    51 1   
    43    20    21 ar  
    44    20    52 1   
    45    21    53 1   
    46    22    23 1   
    47    22    54 1   
    48    23    24 1   
    49    23    55 1   
    50    23    56 1   
    51    24    25 1   
    52    24    33 1   
    53    25    26 2   
    54    25    27 1   
    55    27    28 ar  
    56    27    32 ar  
    57    28    29 ar  
    58    28    57 1   
    59    29    30 ar  
    60    29    58 1   
    61    30    31 ar  
    62    30    59 1   
    63    31    32 ar  
    64    31    60 1   
    65    32    33 1   
    66    33    34 2   
@<TRIPOS>SUBSTRUCTURE
     1 1VW         1 TEMP              0 ****  ****    0 ROOT
