@<TRIPOS>MOLECULE
1VX
   62    66     1     0     0
SMALL
No Charge or Current Charge


@<TRIPOS>ATOM
      1 C4           4.9270    -1.6180    -1.8250 ca         1 1VX      -0.120000
      2 C5           3.5480    -1.4140    -1.6840 ca         1 1VX      -0.112000
      3 C6           3.0190    -0.9040    -0.4820 ca         1 1VX      -0.089300
      4 C11          1.4960    -0.6950    -0.3770 c6         1 1VX       0.143000
      5 C7           3.8930    -0.5890     0.5900 ca         1 1VX      -0.046300
      6 C8           3.3270     0.0010     1.8920 c6         1 1VX      -0.063100
      7 C9           1.8020    -0.1700     2.0210 c6         1 1VX       0.090000
      8 C13          0.7720    -2.0730    -0.3230 c3         1 1VX       0.111000
      9 C3           5.7930    -1.3050    -0.7690 ca         1 1VX      -0.115000
     10 C2           5.2900    -0.7850     0.4390 ca         1 1VX      -0.082300
     11 N10          1.1270     0.2030     0.7570 n          1 1VX      -0.402800
     12 N14         -0.7020    -2.0120    -0.3670 n          1 1VX      -0.405800
     13 C15         -1.5180    -1.9870    -1.6210 c5         1 1VX       0.148300
     14 C16         -2.9160    -2.0430    -1.0230 ca         1 1VX      -0.041300
     15 C17         -4.1430    -2.0520    -1.7040 ca         1 1VX      -0.095000
     16 C18         -5.3360    -2.1210    -0.9540 ca         1 1VX      -0.090000
     17 C19         -5.2930    -2.1820     0.4570 ca         1 1VX      -0.128000
     18 C20         -4.0550    -2.1720     1.1310 ca         1 1VX      -0.031000
     19 C21         -2.8860    -2.1020     0.3600 ca         1 1VX      -0.122600
     20 C22         -1.4800    -2.0950     0.7990 c          1 1VX       0.607600
     21 O23         -1.0680    -2.1750     1.9480 o          1 1VX      -0.569000
     22 C24          0.5390     1.4850     0.5960 c          1 1VX       0.649100
     23 O25          0.7440     2.3540     1.4360 o          1 1VX      -0.589100
     24 C26         -0.3360     1.7860    -0.6650 c6         1 1VX      -0.103700
     25 C28          0.4860     2.4550    -1.8030 c6         1 1VX      -0.075400
     26 C29          0.6980     3.9650    -1.5230 c6         1 1VX      -0.068400
     27 C30         -0.6500     4.6980    -1.2890 c6         1 1VX      -0.074400
     28 C31         -1.4840     4.0380    -0.1570 c6         1 1VX      -0.053400
     29 C32         -1.7000     2.5220    -0.4320 c6         1 1VX      -0.171700
     30 C34         -2.6340     1.8340     0.6000 c          1 1VX       0.726000
     31 O35         -3.7120     1.4210     0.2010 o          1 1VX      -0.735000
     32 O36         -2.2800     1.7670     1.7660 o          1 1VX      -0.735000
     33 H1           5.3260    -2.0140    -2.7560 ha         1 1VX       0.103000
     34 H2           2.8880    -1.6530    -2.5150 ha         1 1VX       0.107000
     35 H3           1.1990    -0.2330    -1.3260 h1         1 1VX       0.071700
     36 H4           3.8030    -0.4580     2.7680 hc         1 1VX       0.051700
     37 H5           3.5690     1.0710     1.9290 hc         1 1VX       0.051700
     38 H6           1.5760    -1.2190     2.2570 h1         1 1VX       0.071700
     39 H7           1.4250     0.4290     2.8620 h1         1 1VX       0.071700
     40 H8           1.1050    -2.6720    -1.1800 h1         1 1VX       0.047700
     41 H9           1.0890    -2.6110     0.5800 h1         1 1VX       0.047700
     42 H10          6.8620    -1.4630    -0.8940 ha         1 1VX       0.100000
     43 H11          6.1390    -1.1060     2.4170 hc         1 1VX       0.037367
     44 H12          7.3120    -0.5310     1.2280 hc         1 1VX       0.037367
     45 H13          6.1310     0.5930     1.9030 hc         1 1VX       0.037367
     46 H14         -1.3590    -1.0690    -2.2010 h1         1 1VX       0.056700
     47 H15         -1.3140    -2.8590    -2.2570 h1         1 1VX       0.056700
     48 H16         -4.1740    -2.0070    -2.7900 ha         1 1VX       0.105000
     49 H17         -6.2960    -2.1290    -1.4660 ha         1 1VX       0.097000
     50 H18         -6.2180    -2.2350     1.0260 ha         1 1VX       0.101000
     51 H19         -4.0070    -2.2200     2.2170 ha         1 1VX       0.122000
     52 H20         -0.6090     0.8040    -1.0630 hc         1 1VX       0.054700
     53 H21          1.4590     1.9600    -1.9210 hc         1 1VX       0.024200
     54 H22         -0.0420     2.3340    -2.7580 hc         1 1VX       0.024200
     55 H23          1.3470     4.0970    -0.6480 hc         1 1VX       0.027700
     56 H24          1.2260     4.4260    -2.3690 hc         1 1VX       0.027700
     57 H25         -0.4610     5.7510    -1.0430 hc         1 1VX       0.015200
     58 H26         -1.2330     4.6970    -2.2200 hc         1 1VX       0.015200
     59 H27         -0.9880     4.1910     0.8110 hc         1 1VX       0.055200
     60 H28         -2.4570     4.5420    -0.0820 hc         1 1VX       0.055200
     61 H29         -2.2370     2.4690    -1.3910 hc         1 1VX       0.017700
     62 C1           6.2700    -0.4380     1.5570 c3         1 1VX      -0.043800
@<TRIPOS>BOND
     1     1     2 ar  
     2     1     9 ar  
     3     1    33 1   
     4     2     3 ar  
     5     2    34 1   
     6     3     4 1   
     7     3     5 ar  
     8     4     8 1   
     9     4    11 1   
    10     4    35 1   
    11     5     6 1   
    12     5    10 ar  
    13     6     7 1   
    14     6    36 1   
    15     6    37 1   
    16     7    11 1   
    17     7    38 1   
    18     7    39 1   
    19     8    12 1   
    20     8    40 1   
    21     8    41 1   
    22     9    10 ar  
    23     9    42 1   
    24    10    62 1   
    25    11    22 1   
    26    12    13 1   
    27    12    20 1   
    28    13    14 1   
    29    13    46 1   
    30    13    47 1   
    31    14    15 ar  
    32    14    19 ar  
    33    15    16 ar  
    34    15    48 1   
    35    16    17 ar  
    36    16    49 1   
    37    17    18 ar  
    38    17    50 1   
    39    18    19 ar  
    40    18    51 1   
    41    19    20 1   
    42    20    21 2   
    43    22    23 2   
    44    22    24 1   
    45    24    25 1   
    46    24    29 1   
    47    24    52 1   
    48    25    26 1   
    49    25    53 1   
    50    25    54 1   
    51    26    27 1   
    52    26    55 1   
    53    26    56 1   
    54    27    28 1   
    55    27    57 1   
    56    27    58 1   
    57    28    29 1   
    58    28    59 1   
    59    28    60 1   
    60    29    30 1   
    61    29    61 1   
    62    30    31 1   
    63    30    32 1   
    64    43    62 1   
    65    44    62 1   
    66    45    62 1   
@<TRIPOS>SUBSTRUCTURE
     1 1VX         1 TEMP              0 ****  ****    0 ROOT
