@<TRIPOS>MOLECULE
1VX
   62    66     1     0     0
SMALL
abcg2


@<TRIPOS>ATOM
      1 C4           4.7030    -1.3990    -1.9040 ca         1 1VX      -0.120000
      2 C5           3.3320    -1.3300    -1.7400 ca         1 1VX      -0.112000
      3 C6           2.7860    -0.8270    -0.5600 ca         1 1VX      -0.089300
      4 C11          1.2780    -0.7450    -0.4390 c6         1 1VX       0.143000
      5 C7           3.6260    -0.3920     0.4670 ca         1 1VX      -0.046300
      6 C8           3.0500     0.1530     1.7470 c6         1 1VX      -0.063100
      7 C9           1.5730    -0.1710     1.8870 c6         1 1VX       0.090000
      8 C13          0.6800    -2.1570    -0.2750 c3         1 1VX       0.111000
      9 C3           5.5390    -0.9520    -0.8900 ca         1 1VX      -0.115000
     10 C2           5.0180    -0.4450     0.2940 ca         1 1VX      -0.082300
     11 N10          0.8890     0.1290     0.6440 n          1 1VX      -0.402800
     12 N14         -0.7510    -2.1680    -0.1830 n          1 1VX      -0.405800
     13 C15         -1.6030    -1.9980    -1.3420 c5         1 1VX       0.148300
     14 C16         -2.9700    -2.1950    -0.7750 ca         1 1VX      -0.041300
     15 C17         -4.2060    -2.2000    -1.3950 ca         1 1VX      -0.095000
     16 C18         -5.3320    -2.4060    -0.6060 ca         1 1VX      -0.090000
     17 C19         -5.2240    -2.6020     0.7710 ca         1 1VX      -0.128000
     18 C20         -3.9800    -2.5950     1.3870 ca         1 1VX      -0.031000
     19 C21         -2.8670    -2.3900     0.5900 ca         1 1VX      -0.122600
     20 C22         -1.4410    -2.3550     0.9690 c          1 1VX       0.607600
     21 O23         -0.9670    -2.5050     2.0840 o          1 1VX      -0.569000
     22 C24          0.1950     1.2940     0.5190 c          1 1VX       0.649100
     23 O25         -0.0020     1.9990     1.5010 o          1 1VX      -0.589100
     24 C26         -0.2460     1.7280    -0.8660 c6         1 1VX      -0.103700
     25 C28          0.9300     2.3780    -1.6160 c6         1 1VX      -0.075400
     26 C29          1.2670     3.7680    -1.0920 c6         1 1VX      -0.068400
     27 C30          0.0450     4.6740    -1.1690 c6         1 1VX      -0.074400
     28 C31         -1.1390     4.0930    -0.4030 c6         1 1VX      -0.053400
     29 C32         -1.4610     2.6600    -0.8280 c6         1 1VX      -0.171700
     30 C34         -2.6320     2.0290    -0.0460 c          1 1VX       0.726000
     31 O35         -3.5380     2.8010     0.3360 o          1 1VX      -0.735000
     32 O36         -2.6070     0.7920     0.1120 o          1 1VX      -0.735000
     33 H1           5.1220    -1.7870    -2.8240 ha         1 1VX       0.103000
     34 H2           2.6770    -1.6570    -2.5390 ha         1 1VX       0.107000
     35 H3           0.9020    -0.3440    -1.3790 h1         1 1VX       0.071700
     36 H4           3.5890    -0.2530     2.6070 hc         1 1VX       0.051700
     37 H5           3.1990     1.2380     1.7860 hc         1 1VX       0.051700
     38 H6           1.4390    -1.2270     2.1250 h1         1 1VX       0.071700
     39 H7           1.1230     0.3900     2.6990 h1         1 1VX       0.071700
     40 H8           0.9870    -2.7590    -1.1330 h1         1 1VX       0.047700
     41 H9           1.0850    -2.6450     0.6110 h1         1 1VX       0.047700
     42 H10          6.6140    -0.9930    -1.0220 ha         1 1VX       0.100000
     43 H11          5.8540    -0.5600     2.2810 hc         1 1VX       0.037367
     44 H12          6.9760     0.0150     1.0520 hc         1 1VX       0.037367
     45 H13          5.7070     1.0740     1.6640 hc         1 1VX       0.037367
     46 H14         -1.5010    -0.9970    -1.7690 h1         1 1VX       0.056700
     47 H15         -1.3580    -2.7260    -2.1210 h1         1 1VX       0.056700
     48 H16         -4.3030    -2.0510    -2.4630 ha         1 1VX       0.105000
     49 H17         -6.3110    -2.4180    -1.0680 ha         1 1VX       0.097000
     50 H18         -6.1180    -2.7630     1.3590 ha         1 1VX       0.101000
     51 H19         -3.8840    -2.7460     2.4540 ha         1 1VX       0.122000
     52 H20         -0.5570     0.8490    -1.4310 hc         1 1VX       0.054700
     53 H21          1.8150     1.7350    -1.5910 hc         1 1VX       0.024200
     54 H22          0.6450     2.4590    -2.6700 hc         1 1VX       0.024200
     55 H23          1.6200     3.7060    -0.0580 hc         1 1VX       0.027700
     56 H24          2.0900     4.1880    -1.6750 hc         1 1VX       0.027700
     57 H25          0.2850     5.6700    -0.7860 hc         1 1VX       0.015200
     58 H26         -0.2290     4.8090    -2.2220 hc         1 1VX       0.015200
     59 H27         -0.9270     4.1280     0.6660 hc         1 1VX       0.055200
     60 H28         -2.0210     4.7150    -0.5630 hc         1 1VX       0.055200
     61 H29         -1.8010     2.7210    -1.8740 hc         1 1VX       0.017700
     62 C1           5.9360     0.0460     1.3750 c3         1 1VX      -0.043800
@<TRIPOS>BOND
     1     1     2 ar  
     2     1     9 ar  
     3     1    33 1   
     4     2     3 ar  
     5     2    34 1   
     6     3     4 1   
     7     3     5 ar  
     8     4     8 1   
     9     4    11 1   
    10     4    35 1   
    11     5     6 1   
    12     5    10 ar  
    13     6     7 1   
    14     6    36 1   
    15     6    37 1   
    16     7    11 1   
    17     7    38 1   
    18     7    39 1   
    19     8    12 1   
    20     8    40 1   
    21     8    41 1   
    22     9    10 ar  
    23     9    42 1   
    24    10    62 1   
    25    11    22 1   
    26    12    13 1   
    27    12    20 1   
    28    13    14 1   
    29    13    46 1   
    30    13    47 1   
    31    14    15 ar  
    32    14    19 ar  
    33    15    16 ar  
    34    15    48 1   
    35    16    17 ar  
    36    16    49 1   
    37    17    18 ar  
    38    17    50 1   
    39    18    19 ar  
    40    18    51 1   
    41    19    20 1   
    42    20    21 2   
    43    22    23 2   
    44    22    24 1   
    45    24    25 1   
    46    24    29 1   
    47    24    52 1   
    48    25    26 1   
    49    25    53 1   
    50    25    54 1   
    51    26    27 1   
    52    26    55 1   
    53    26    56 1   
    54    27    28 1   
    55    27    57 1   
    56    27    58 1   
    57    28    29 1   
    58    28    59 1   
    59    28    60 1   
    60    29    30 1   
    61    29    61 1   
    62    30    31 1   
    63    30    32 1   
    64    43    62 1   
    65    44    62 1   
    66    45    62 1   
@<TRIPOS>SUBSTRUCTURE
     1 1VX         1 TEMP              0 ****  ****    0 ROOT
