@<TRIPOS>MOLECULE
1VY
   39    40     1     0     0
SMALL
abcg2


@<TRIPOS>ATOM
      1 O7           0.3330    -2.8370    -1.1540 oh         1 1VY      -0.525100
      2 C7           1.1600    -1.9580    -0.6520 cc         1 1VY       0.205100
      3 C6           2.4160    -2.3030    -0.1170 cd         1 1VY       0.143300
      4 C9           2.8570    -3.7320    -0.0980 c3         1 1VY      -0.136400
      5 N5           3.1930    -1.3610     0.3640 nd         1 1VY      -0.487000
      6 C4A          2.8040    -0.1020     0.3420 cc         1 1VY       0.128500
      7 C4           3.6840     0.9310     0.8860 c          1 1VY       0.497500
      8 O4           4.7800     0.7220     1.3690 o          1 1VY      -0.503000
      9 N3           3.1470     2.1870     0.7970 ns         1 1VY      -0.496500
     10 C2           1.9050     2.5340     0.2640 c          1 1VY       0.733400
     11 O2           1.5740     3.7080     0.2590 o          1 1VY      -0.523000
     12 N1           1.1180     1.5460    -0.2260 nd         1 1VY      -0.472400
     13 C8A          1.5630     0.3180    -0.1820 cc         1 1VY       0.125000
     14 N8           0.7570    -0.6810    -0.6910 na         1 1VY       0.013000
     15 C1          -0.5660    -0.3180    -1.2170 c3         1 1VY       0.028600
     16 C11         -1.5710    -0.1960    -0.0620 c3         1 1VY       0.125300
     17 O6          -1.5010    -1.3100     0.7920 oh         1 1VY      -0.701000
     18 C3          -2.9960     0.0080    -0.6150 c3         1 1VY       0.105300
     19 O3          -3.0080     0.7150    -1.8340 oh         1 1VY      -0.714000
     20 C10         -3.9370     0.6880     0.4000 c3         1 1VY       0.140300
     21 O1          -3.7220     0.2840     1.7280 oh         1 1VY      -0.681000
     22 C5          -5.3840     0.4960    -0.0250 c3         1 1VY       0.132600
     23 O5          -6.2100     1.2970     0.7860 oh         1 1VY      -0.703000
     24 H1           2.9520    -4.1470    -1.1050 hc         1 1VY       0.055700
     25 H2           3.8330    -3.8010     0.3770 hc         1 1VY       0.055700
     26 H3           2.1710    -4.3700     0.4660 hc         1 1VY       0.055700
     27 H5           3.7100     2.9500     1.1520 hn         1 1VY       0.339500
     28 H6          -0.4500     0.6270    -1.7370 h1         1 1VY       0.095700
     29 H7          -0.8690    -1.0650    -1.9460 h1         1 1VY       0.095700
     30 H8          -1.2810     0.6660     0.5440 h1         1 1VY       0.121700
     31 H9          -1.8460    -2.0830     0.3320 ho         1 1VY       0.497000
     32 H10         -3.3910    -0.9880    -0.8610 h1         1 1VY       0.062700
     33 H11         -2.7790     1.6360    -1.6660 ho         1 1VY       0.519000
     34 H12         -3.7050     1.7620     0.3890 h1         1 1VY       0.090700
     35 H13         -3.8150    -0.6730     1.7880 ho         1 1VY       0.501000
     36 H14         -5.4850     0.7540    -1.0850 h1         1 1VY       0.024700
     37 H15         -5.6360    -0.5720     0.0670 h1         1 1VY       0.024700
     38 H16         -7.1180     1.1810     0.4930 ho         1 1VY       0.505000
     39 H17          0.6850    -3.7370    -1.1130 ho         1 1VY       0.522000
@<TRIPOS>BOND
     1     1     2 1   
     2     1    39 1   
     3     2     3 2   
     4     2    14 1   
     5     3     4 1   
     6     3     5 1   
     7     4    24 1   
     8     4    25 1   
     9     4    26 1   
    10     5     6 2   
    11     6     7 1   
    12     6    13 1   
    13     7     8 2   
    14     7     9 1   
    15     9    10 1   
    16     9    27 1   
    17    10    11 2   
    18    10    12 1   
    19    12    13 2   
    20    13    14 1   
    21    14    15 1   
    22    15    16 1   
    23    15    28 1   
    24    15    29 1   
    25    16    17 1   
    26    16    18 1   
    27    16    30 1   
    28    17    31 1   
    29    18    19 1   
    30    18    20 1   
    31    18    32 1   
    32    19    33 1   
    33    20    21 1   
    34    20    22 1   
    35    20    34 1   
    36    21    35 1   
    37    22    23 1   
    38    22    36 1   
    39    22    37 1   
    40    23    38 1   
@<TRIPOS>SUBSTRUCTURE
     1 1VY         1 TEMP              0 ****  ****    0 ROOT
