@<TRIPOS>MOLECULE
1VY
   39    40     1     0     0
SMALL
No Charge or Current Charge


@<TRIPOS>ATOM
      1 O7           0.2370    -3.0510    -0.6110 oh         1 1VY      -0.525100
      2 C7           1.1620    -2.0780    -0.3970 cc         1 1VY       0.205100
      3 C6           2.4920    -2.3530    -0.0140 cd         1 1VY       0.143300
      4 C9           3.0080    -3.7640     0.1530 c3         1 1VY      -0.136400
      5 N5           3.4300    -1.3610     0.2670 nd         1 1VY      -0.487000
      6 C4A          2.9770    -0.1180     0.1820 cc         1 1VY       0.128500
      7 C4           3.8680     1.0430     0.5230 c          1 1VY       0.497500
      8 O4           5.0340     0.9520     0.8830 o          1 1VY      -0.503000
      9 N3           3.2840     2.2750     0.4090 ns         1 1VY      -0.496500
     10 C2           2.0150     2.5640     0.0290 c          1 1VY       0.733400
     11 O2           1.6030     3.7080    -0.0310 o          1 1VY      -0.523000
     12 N1           1.1990     1.4710    -0.2940 nd         1 1VY      -0.472400
     13 C8A          1.6540     0.2280    -0.2240 cc         1 1VY       0.125000
     14 N8           0.7240    -0.7480    -0.5980 na         1 1VY       0.013000
     15 C1          -0.6320    -0.4360    -1.1460 c3         1 1VY       0.028600
     16 C11         -1.7310    -0.3090    -0.0550 c3         1 1VY       0.125300
     17 O6          -1.9390    -1.6030     0.5570 oh         1 1VY      -0.701000
     18 C3          -3.0900     0.2410    -0.6190 c3         1 1VY       0.105300
     19 O3          -2.8690     1.5070    -1.2820 oh         1 1VY      -0.714000
     20 C10         -4.2200     0.3910     0.4620 c3         1 1VY       0.140300
     21 O1          -4.4160    -0.8740     1.1250 oh         1 1VY      -0.681000
     22 C5          -5.5720     0.8910    -0.1410 c3         1 1VY       0.132600
     23 O5          -6.5480     1.1530     0.8870 oh         1 1VY      -0.703000
     24 H1           2.9450    -4.3230    -0.7880 hc         1 1VY       0.055700
     25 H2           4.0590    -3.7800     0.4670 hc         1 1VY       0.055700
     26 H3           2.4370    -4.3070     0.9160 hc         1 1VY       0.055700
     27 H5           3.8610     3.0700     0.6350 hn         1 1VY       0.339500
     28 H6          -0.5750     0.4940    -1.7240 h1         1 1VY       0.095700
     29 H7          -0.9220    -1.2080    -1.8690 h1         1 1VY       0.095700
     30 H8          -1.3680     0.4070     0.6990 h1         1 1VY       0.121700
     31 H9          -1.2290    -2.2090     0.2230 ho         1 1VY       0.497000
     32 H10         -3.4480    -0.4850    -1.3630 h1         1 1VY       0.062700
     33 H11         -2.6020     2.1750    -0.6070 ho         1 1VY       0.519000
     34 H12         -3.8840     1.1400     1.1930 h1         1 1VY       0.090700
     35 H13         -3.5300    -1.3290     1.0530 ho         1 1VY       0.501000
     36 H14         -5.3950     1.8090    -0.7170 h1         1 1VY       0.024700
     37 H15         -5.9510     0.1360    -0.8430 h1         1 1VY       0.024700
     38 H16         -7.3940     1.3760     0.4330 ho         1 1VY       0.505000
     39 H17          0.7010    -3.9180    -0.5640 ho         1 1VY       0.522000
@<TRIPOS>BOND
     1     1     2 1   
     2     1    39 1   
     3     2     3 2   
     4     2    14 1   
     5     3     4 1   
     6     3     5 1   
     7     4    24 1   
     8     4    25 1   
     9     4    26 1   
    10     5     6 2   
    11     6     7 1   
    12     6    13 1   
    13     7     8 2   
    14     7     9 1   
    15     9    10 1   
    16     9    27 1   
    17    10    11 2   
    18    10    12 1   
    19    12    13 2   
    20    13    14 1   
    21    14    15 1   
    22    15    16 1   
    23    15    28 1   
    24    15    29 1   
    25    16    17 1   
    26    16    18 1   
    27    16    30 1   
    28    17    31 1   
    29    18    19 1   
    30    18    20 1   
    31    18    32 1   
    32    19    33 1   
    33    20    21 1   
    34    20    22 1   
    35    20    34 1   
    36    21    35 1   
    37    22    23 1   
    38    22    36 1   
    39    22    37 1   
    40    23    38 1   
@<TRIPOS>SUBSTRUCTURE
     1 1VY         1 TEMP              0 ****  ****    0 ROOT
