@<TRIPOS>MOLECULE
1VZ
   57    60     1     0     0
SMALL
No Charge or Current Charge


@<TRIPOS>ATOM
      1 CAN         -6.8330    -0.8000    -0.6760 c5         1 1VZ       0.157800
      2 CAG         -8.1790    -0.4870     0.0290 c5         1 1VZ      -0.079400
      3 CAH         -8.0620     1.0210     0.4050 c5         1 1VZ      -0.079400
      4 CAO         -6.6600     1.4280    -0.1190 c5         1 1VZ       0.157800
      5 NAX         -5.9080     0.1540    -0.0190 n3         1 1VZ      -0.712600
      6 CAU         -4.5050     0.1760    -0.5390 c6         1 1VZ       0.187500
      7 CAK         -3.6320     1.2280     0.2010 c6         1 1VZ      -0.079900
      8 CAR         -2.1760     1.2230    -0.3140 c6         1 1VZ       0.195800
      9 CAJ         -3.8210    -1.2140    -0.4100 c6         1 1VZ      -0.079900
     10 CAQ         -2.3590    -1.1840    -0.9100 c6         1 1VZ       0.195800
     11 NAW         -1.5720    -0.1320    -0.2140 nh         1 1VZ      -0.781400
     12 CAT         -0.1760    -0.2700    -0.0260 ca         1 1VZ       0.285000
     13 CAD          0.4450     0.3440     1.0780 ca         1 1VZ      -0.155000
     14 CAB          1.8300     0.2210     1.2850 ca         1 1VZ      -0.082000
     15 CAC          0.6180    -1.0130    -0.9230 ca         1 1VZ      -0.155000
     16 CAA          2.0040    -1.1380    -0.7200 ca         1 1VZ      -0.082000
     17 CAS          2.6170    -0.5220     0.3870 ca         1 1VZ      -0.110300
     18 CAI          4.1190    -0.6520     0.6030 c3         1 1VZ      -0.027100
     19 CAP          4.9130     0.4100    -0.1890 c3         1 1VZ       0.171800
     20 NAV          6.3740     0.3920     0.0550 n3         1 1VZ      -0.719600
     21 CAL          7.1290     1.4660    -0.6200 c5         1 1VZ       0.158800
     22 CAE          8.5850     1.1140    -0.2180 c5         1 1VZ      -0.079400
     23 CAF          8.5720    -0.4440    -0.1120 c5         1 1VZ      -0.079400
     24 CAM          7.0910    -0.8280    -0.3770 c5         1 1VZ       0.158800
     25 H1          -6.5450    -1.8500    -0.5310 h1         1 1VZ       0.034200
     26 H2          -6.8980    -0.6100    -1.7570 h1         1 1VZ       0.034200
     27 H3          -9.0340    -0.6930    -0.6240 hc         1 1VZ       0.046450
     28 H4          -8.3020    -1.1030     0.9270 hc         1 1VZ       0.046450
     29 H5          -8.8550     1.6290    -0.0460 hc         1 1VZ       0.046450
     30 H6          -8.1290     1.1570     1.4900 hc         1 1VZ       0.046450
     31 H7          -6.7130     1.7780    -1.1600 h1         1 1VZ       0.034200
     32 H8          -6.2290     2.2330     0.4910 h1         1 1VZ       0.034200
     33 H10         -4.5240     0.4440    -1.6060 h1         1 1VZ       0.014700
     34 H11         -4.0390     2.2370     0.0640 hc         1 1VZ       0.055450
     35 H12         -3.6400     1.0260     1.2810 hc         1 1VZ       0.055450
     36 H13         -2.1620     1.5580    -1.3620 h1         1 1VZ       0.035950
     37 H14         -1.5950     1.9540     0.2670 h1         1 1VZ       0.035950
     38 H15         -3.8420    -1.5430     0.6380 hc         1 1VZ       0.055450
     39 H16         -4.3640    -1.9700    -0.9890 hc         1 1VZ       0.055450
     40 H17         -1.9130    -2.1740    -0.7360 h1         1 1VZ       0.035950
     41 H18         -2.3500    -1.0030    -1.9960 h1         1 1VZ       0.035950
     42 H19         -0.1520     0.9120     1.7850 ha         1 1VZ       0.113500
     43 H20          2.2890     0.7050     2.1450 ha         1 1VZ       0.109500
     44 H21          0.1690    -1.4880    -1.7900 ha         1 1VZ       0.113500
     45 H22          2.6010    -1.7110    -1.4260 ha         1 1VZ       0.109500
     46 H23          4.3600    -0.5530     1.6690 hc         1 1VZ       0.052200
     47 H24          4.4500    -1.6540     0.3050 hc         1 1VZ       0.052200
     48 H25          4.7110     0.2720    -1.2600 h1         1 1VZ       0.031700
     49 H26          4.5170     1.3970     0.0870 h1         1 1VZ       0.031700
     50 H28          6.9960     1.4250    -1.7100 h1         1 1VZ       0.034450
     51 H29          6.8370     2.4680    -0.2760 h1         1 1VZ       0.034450
     52 H30          9.3100     1.4810    -0.9530 hc         1 1VZ       0.045950
     53 H31          8.8440     1.5670     0.7460 hc         1 1VZ       0.045950
     54 H32          9.2450    -0.9180    -0.8350 hc         1 1VZ       0.045950
     55 H33          8.8910    -0.7680     0.8860 hc         1 1VZ       0.045950
     56 H34          6.7950    -1.7210     0.1900 h1         1 1VZ       0.034450
     57 H35          6.9220    -1.0300    -1.4450 h1         1 1VZ       0.034450
@<TRIPOS>BOND
     1     1     2 1   
     2     1     5 1   
     3     1    25 1   
     4     1    26 1   
     5     2     3 1   
     6     2    27 1   
     7     2    28 1   
     8     3     4 1   
     9     3    29 1   
    10     3    30 1   
    11     4     5 1   
    12     4    31 1   
    13     4    32 1   
    14     5     6 1   
    15     6     7 1   
    16     6     9 1   
    17     6    33 1   
    18     7     8 1   
    19     7    34 1   
    20     7    35 1   
    21     8    11 1   
    22     8    36 1   
    23     8    37 1   
    24     9    10 1   
    25     9    38 1   
    26     9    39 1   
    27    10    11 1   
    28    10    40 1   
    29    10    41 1   
    30    11    12 1   
    31    12    13 ar  
    32    12    15 ar  
    33    13    14 ar  
    34    13    42 1   
    35    14    17 ar  
    36    14    43 1   
    37    15    16 ar  
    38    15    44 1   
    39    16    17 ar  
    40    16    45 1   
    41    17    18 1   
    42    18    19 1   
    43    18    46 1   
    44    18    47 1   
    45    19    20 1   
    46    19    48 1   
    47    19    49 1   
    48    20    21 1   
    49    20    24 1   
    50    21    22 1   
    51    21    50 1   
    52    21    51 1   
    53    22    23 1   
    54    22    52 1   
    55    22    53 1   
    56    23    24 1   
    57    23    54 1   
    58    23    55 1   
    59    24    56 1   
    60    24    57 1   
@<TRIPOS>SUBSTRUCTURE
     1 1VZ         1 TEMP              0 ****  ****    0 ROOT
