@<TRIPOS>MOLECULE
1VZ
   57    60     1     0     0
SMALL
abcg2


@<TRIPOS>ATOM
      1 CAN         -6.6300    -0.7240    -0.8500 c5         1 1VZ       0.157800
      2 CAG         -8.0620    -0.2930    -0.5310 c5         1 1VZ      -0.079400
      3 CAH         -7.9280     1.1750    -0.0830 c5         1 1VZ      -0.079400
      4 CAO         -6.4340     1.4700    -0.2040 c5         1 1VZ       0.157800
      5 NAX         -5.7990     0.1680    -0.0520 n3         1 1VZ      -0.712600
      6 CAU         -4.3950     0.1520    -0.4170 c6         1 1VZ       0.187500
      7 CAK         -3.5840     1.1230     0.4370 c6         1 1VZ      -0.079900
      8 CAR         -2.1030     1.0510     0.1110 c6         1 1VZ       0.195800
      9 CAJ         -3.7860    -1.2370    -0.2550 c6         1 1VZ      -0.079900
     10 CAQ         -2.2980    -1.2470    -0.5700 c6         1 1VZ       0.195800
     11 NAW         -1.5830    -0.3020     0.2620 nh         1 1VZ      -0.781400
     12 CAT         -0.1910    -0.4230     0.3310 ca         1 1VZ       0.285000
     13 CAD          0.5210     0.3030     1.2970 ca         1 1VZ      -0.155000
     14 CAB          1.8950     0.1920     1.4070 ca         1 1VZ      -0.082000
     15 CAC          0.5420    -1.2680    -0.5050 ca         1 1VZ      -0.155000
     16 CAA          1.9220    -1.3820    -0.3730 ca         1 1VZ      -0.082000
     17 CAS          2.6290    -0.6560     0.5760 ca         1 1VZ      -0.110300
     18 CAI          4.1260    -0.7330     0.6750 c3         1 1VZ      -0.027100
     19 CAP          4.7910     0.3900    -0.1200 c3         1 1VZ       0.171800
     20 NAV          6.2270     0.4100     0.0220 n3         1 1VZ      -0.719600
     21 CAL          6.8480     1.5670    -0.5970 c5         1 1VZ       0.158800
     22 CAE          8.3380     1.2410    -0.5470 c5         1 1VZ      -0.079400
     23 CAF          8.3820    -0.2980    -0.6320 c5         1 1VZ      -0.079400
     24 CAM          6.9130    -0.7340    -0.5580 c5         1 1VZ       0.158800
     25 H1          -6.4510    -1.7710    -0.6050 h1         1 1VZ       0.034200
     26 H2          -6.4250    -0.6020    -1.9280 h1         1 1VZ       0.034200
     27 H3          -8.7110    -0.4090    -1.3980 hc         1 1VZ       0.046450
     28 H4          -8.4820    -0.9050     0.2680 hc         1 1VZ       0.046450
     29 H5          -8.5170     1.8580    -0.6940 hc         1 1VZ       0.046450
     30 H6          -8.2620     1.2970     0.9480 hc         1 1VZ       0.046450
     31 H7          -6.2080     1.9100    -1.1910 h1         1 1VZ       0.034200
     32 H8          -6.0900     2.1780     0.5510 h1         1 1VZ       0.034200
     33 H10         -4.2800     0.4540    -1.4780 h1         1 1VZ       0.014700
     34 H11         -3.9070     2.1540     0.2780 hc         1 1VZ       0.055450
     35 H12         -3.7420     0.8890     1.4950 hc         1 1VZ       0.055450
     36 H13         -1.9350     1.4100    -0.9170 h1         1 1VZ       0.035950
     37 H14         -1.5640     1.7300     0.7700 h1         1 1VZ       0.035950
     38 H15         -3.9450    -1.5790     0.7720 hc         1 1VZ       0.055450
     39 H16         -4.2690    -1.9620    -0.9140 hc         1 1VZ       0.055450
     40 H17         -1.9110    -2.2510    -0.3860 h1         1 1VZ       0.035950
     41 H18         -2.1510    -1.0390    -1.6430 h1         1 1VZ       0.035950
     42 H19         -0.0110     0.9440     1.9890 ha         1 1VZ       0.113500
     43 H20          2.4070     0.7640     2.1730 ha         1 1VZ       0.109500
     44 H21          0.0520    -1.8440    -1.2780 ha         1 1VZ       0.113500
     45 H22          2.4550    -2.0490    -1.0410 ha         1 1VZ       0.109500
     46 H23          4.4430    -0.6590     1.7200 hc         1 1VZ       0.052200
     47 H24          4.4690    -1.7030     0.3080 hc         1 1VZ       0.052200
     48 H25          4.4870     0.3070    -1.1800 h1         1 1VZ       0.031700
     49 H26          4.4000     1.3480     0.2370 h1         1 1VZ       0.031700
     50 H28          6.5230     1.6940    -1.6440 h1         1 1VZ       0.034450
     51 H29          6.5850     2.4830    -0.0630 h1         1 1VZ       0.034450
     52 H30          8.8850     1.7250    -1.3550 hc         1 1VZ       0.045950
     53 H31          8.7710     1.5870     0.3920 hc         1 1VZ       0.045950
     54 H32          8.8440    -0.6480    -1.5550 hc         1 1VZ       0.045950
     55 H33          8.9590    -0.7170     0.1930 hc         1 1VZ       0.045950
     56 H34          6.7740    -1.6320     0.0470 h1         1 1VZ       0.034450
     57 H35          6.5310    -0.9590    -1.5680 h1         1 1VZ       0.034450
@<TRIPOS>BOND
     1     1     2 1   
     2     1     5 1   
     3     1    25 1   
     4     1    26 1   
     5     2     3 1   
     6     2    27 1   
     7     2    28 1   
     8     3     4 1   
     9     3    29 1   
    10     3    30 1   
    11     4     5 1   
    12     4    31 1   
    13     4    32 1   
    14     5     6 1   
    15     6     7 1   
    16     6     9 1   
    17     6    33 1   
    18     7     8 1   
    19     7    34 1   
    20     7    35 1   
    21     8    11 1   
    22     8    36 1   
    23     8    37 1   
    24     9    10 1   
    25     9    38 1   
    26     9    39 1   
    27    10    11 1   
    28    10    40 1   
    29    10    41 1   
    30    11    12 1   
    31    12    13 ar  
    32    12    15 ar  
    33    13    14 ar  
    34    13    42 1   
    35    14    17 ar  
    36    14    43 1   
    37    15    16 ar  
    38    15    44 1   
    39    16    17 ar  
    40    16    45 1   
    41    17    18 1   
    42    18    19 1   
    43    18    46 1   
    44    18    47 1   
    45    19    20 1   
    46    19    48 1   
    47    19    49 1   
    48    20    21 1   
    49    20    24 1   
    50    21    22 1   
    51    21    50 1   
    52    21    51 1   
    53    22    23 1   
    54    22    52 1   
    55    22    53 1   
    56    23    24 1   
    57    23    54 1   
    58    23    55 1   
    59    24    56 1   
    60    24    57 1   
@<TRIPOS>SUBSTRUCTURE
     1 1VZ         1 TEMP              0 ****  ****    0 ROOT
