@<TRIPOS>MOLECULE
1W0
   38    41     1     0     0
SMALL
abcg2


@<TRIPOS>ATOM
      1 C4          -0.6590     0.1320    -0.1960 ca         1 1W0      -0.097000
      2 C5           0.5600     0.7660    -0.4190 ca         1 1W0      -0.082300
      3 C6           0.5630     2.1400    -0.6320 ca         1 1W0      -0.078000
      4 C7           1.8500    -0.0500    -0.4780 c5         1 1W0       0.178500
      5 C8           1.8320    -0.9080    -1.7490 c6         1 1W0      -0.088400
      6 C17         -3.1250     0.1460     0.0980 cp         1 1W0      -0.132000
      7 C20         -5.4300    -1.1210     0.5750 ca         1 1W0       0.113900
      8 C22         -4.3130     0.4870    -0.5430 ca         1 1W0       0.111400
      9 C1          -0.6260     2.8590    -0.6130 ca         1 1W0      -0.113000
     10 C2          -1.8310     2.2210    -0.3770 ca         1 1W0      -0.094000
     11 C3          -1.8570     0.8420    -0.1630 cp         1 1W0      -0.037000
     12 C9           2.8570    -2.0210    -1.7050 c6         1 1W0       0.147600
     13 O10          2.6510    -2.8230    -0.5600 os         1 1W0      -0.442000
     14 C11          2.9560    -2.1080     0.6070 c6         1 1W0       0.137600
     15 C12          2.0420    -0.8900     0.8050 c5         1 1W0       0.106300
     16 O13          2.7320     0.0330     1.6570 os         1 1W0      -0.468600
     17 C14          3.3700     0.8590     0.8000 c2         1 1W0       0.796500
     18 N15          3.0140     0.8270    -0.4280 n2         1 1W0      -0.730900
     19 N16          4.3440     1.6050     1.3410 nv         1 1W0      -1.031200
     20 C18         -3.2280    -0.9020     1.0090 ca         1 1W0       0.111400
     21 N19         -4.3660    -1.5360     1.2470 nb         1 1W0      -0.171000
     22 N21         -5.4590    -0.1360    -0.3090 nb         1 1W0      -0.171000
     23 H1          -0.6850    -0.9440    -0.0620 ha         1 1W0       0.114000
     24 H2           1.4990     2.6500    -0.8120 ha         1 1W0       0.133000
     25 H3           0.8420    -1.3520    -1.8800 hc         1 1W0       0.064200
     26 H4           2.0020    -0.2590    -2.6110 hc         1 1W0       0.064200
     27 H5          -6.3640    -1.6370     0.7670 h5         1 1W0       0.051100
     28 H6          -4.3330     1.2830    -1.2810 h4         1 1W0       0.026600
     29 H7          -0.6080     3.9290    -0.7740 ha         1 1W0       0.116000
     30 H8          -2.7460     2.7990    -0.3400 ha         1 1W0       0.116000
     31 H9           2.7560    -2.6680    -2.5770 h1         1 1W0       0.055700
     32 H10          3.8770    -1.6130    -1.7080 h1         1 1W0       0.055700
     33 H11          2.8480    -2.7910     1.4520 h1         1 1W0       0.058700
     34 H12          4.0030    -1.7750     0.5850 h1         1 1W0       0.058700
     35 H13          1.1080    -1.1740     1.2900 h1         1 1W0       0.097700
     36 H14          4.4280     1.6540     2.3420 hn         1 1W0       0.497000
     37 H15          4.6550     2.4130     0.8300 hn         1 1W0       0.497000
     38 H16         -2.3610    -1.2270     1.5760 h4         1 1W0       0.026600
@<TRIPOS>BOND
     1     1     2 ar  
     2     1    11 ar  
     3     1    23 1   
     4     2     3 ar  
     5     2     4 1   
     6     3     9 ar  
     7     3    24 1   
     8     4     5 1   
     9     4    15 1   
    10     4    18 1   
    11     5    12 1   
    12     5    25 1   
    13     5    26 1   
    14     6     8 ar  
    15     6    11 1   
    16     6    20 ar  
    17     7    21 ar  
    18     7    22 ar  
    19     7    27 1   
    20     8    22 ar  
    21     8    28 1   
    22     9    10 ar  
    23     9    29 1   
    24    10    11 ar  
    25    10    30 1   
    26    12    13 1   
    27    12    31 1   
    28    12    32 1   
    29    13    14 1   
    30    14    15 1   
    31    14    33 1   
    32    14    34 1   
    33    15    16 1   
    34    15    35 1   
    35    16    17 1   
    36    17    18 2   
    37    17    19 1   
    38    19    36 1   
    39    19    37 1   
    40    20    21 ar  
    41    20    38 1   
@<TRIPOS>SUBSTRUCTURE
     1 1W0         1 TEMP              0 ****  ****    0 ROOT
