@<TRIPOS>MOLECULE
1W0
   38    41     1     0     0
SMALL
No Charge or Current Charge


@<TRIPOS>ATOM
      1 C4          -0.6440     0.1380    -0.2200 ca         1 1W0      -0.097000
      2 C5           0.5930     0.7940    -0.4360 ca         1 1W0      -0.082300
      3 C6           0.5760     2.1980    -0.5990 ca         1 1W0      -0.078000
      4 C7           1.9080    -0.0230    -0.5250 c5         1 1W0       0.178500
      5 C8           1.8770    -0.9440    -1.7750 c6         1 1W0      -0.088400
      6 C17         -3.1630     0.1220     0.0930 cp         1 1W0      -0.132000
      7 C20         -5.5030    -1.1830     0.5210 ca         1 1W0       0.113900
      8 C22         -4.4040     0.6090    -0.3960 ca         1 1W0       0.111400
      9 C1          -0.6270     2.9170    -0.5280 ca         1 1W0      -0.113000
     10 C2          -1.8380     2.2480    -0.3000 ca         1 1W0      -0.094000
     11 C3          -1.8720     0.8430    -0.1430 cp         1 1W0      -0.037000
     12 C9           2.9170    -2.0740    -1.6630 c6         1 1W0       0.147600
     13 O10          2.6630    -2.8390    -0.4680 os         1 1W0      -0.442000
     14 C11          2.8750    -2.1160     0.7680 c6         1 1W0       0.137600
     15 C12          2.0570    -0.7850     0.8450 c5         1 1W0       0.106300
     16 O13          2.8140     0.1720     1.6130 os         1 1W0      -0.468600
     17 C14          3.4900     0.8640     0.6750 c2         1 1W0       0.796500
     18 N15          3.1380     0.8170    -0.5410 n2         1 1W0      -0.730900
     19 N16          4.4950     1.5760     1.1840 nv         1 1W0      -1.031200
     20 C18         -3.2310    -1.0940     0.8220 ca         1 1W0       0.111400
     21 N19         -4.3920    -1.7460     1.0380 nb         1 1W0      -0.171000
     22 N21         -5.5690    -0.0370    -0.1870 nb         1 1W0      -0.171000
     23 H1          -0.6560    -0.9440    -0.1260 ha         1 1W0       0.114000
     24 H2           1.4950     2.7480    -0.7870 ha         1 1W0       0.133000
     25 H3           0.8860    -1.4000    -1.8930 hc         1 1W0       0.064200
     26 H4           2.0530    -0.3540    -2.6850 hc         1 1W0       0.064200
     27 H5          -6.4420    -1.7060     0.6930 h5         1 1W0       0.051100
     28 H6          -4.4640     1.5260    -0.9790 h4         1 1W0       0.026600
     29 H7          -0.6200     3.9980    -0.6500 ha         1 1W0       0.116000
     30 H8          -2.7550     2.8290    -0.2370 ha         1 1W0       0.116000
     31 H9           2.8390    -2.7390    -2.5350 h1         1 1W0       0.055700
     32 H10          3.9380    -1.6670    -1.6330 h1         1 1W0       0.055700
     33 H11          2.6060    -2.7670     1.6120 h1         1 1W0       0.058700
     34 H12          3.9500    -1.8990     0.8530 h1         1 1W0       0.058700
     35 H13          1.1020    -0.9940     1.3430 h1         1 1W0       0.097700
     36 H14          4.3270     1.7980     2.1550 hn         1 1W0       0.497000
     37 H15          4.7170     2.3730     0.6020 hn         1 1W0       0.497000
     38 H16         -2.3410    -1.5490     1.2540 h4         1 1W0       0.026600
@<TRIPOS>BOND
     1     1     2 ar  
     2     1    11 ar  
     3     1    23 1   
     4     2     3 ar  
     5     2     4 1   
     6     3     9 ar  
     7     3    24 1   
     8     4     5 1   
     9     4    15 1   
    10     4    18 1   
    11     5    12 1   
    12     5    25 1   
    13     5    26 1   
    14     6     8 ar  
    15     6    11 1   
    16     6    20 ar  
    17     7    21 ar  
    18     7    22 ar  
    19     7    27 1   
    20     8    22 ar  
    21     8    28 1   
    22     9    10 ar  
    23     9    29 1   
    24    10    11 ar  
    25    10    30 1   
    26    12    13 1   
    27    12    31 1   
    28    12    32 1   
    29    13    14 1   
    30    14    15 1   
    31    14    33 1   
    32    14    34 1   
    33    15    16 1   
    34    15    35 1   
    35    16    17 1   
    36    17    18 2   
    37    17    19 1   
    38    19    36 1   
    39    19    37 1   
    40    20    21 ar  
    41    20    38 1   
@<TRIPOS>SUBSTRUCTURE
     1 1W0         1 TEMP              0 ****  ****    0 ROOT
