@<TRIPOS>MOLECULE
1W1
   41    44     1     0     0
SMALL
bcc


@<TRIPOS>ATOM
      1 C4           2.8530    -0.9990    -0.1940 ca         1 1W1       0.710200
      2 C6           4.2890    -2.6020    -0.9940 ca         1 1W1       0.466200
      3 C8           0.5870    -0.9480    -1.1010 c6         1 1W1       0.206800
      4 C10         -1.0610     0.7910    -0.1890 c5         1 1W1       0.185500
      5 C17         -2.3110    -0.0210     0.0880 ca         1 1W1      -0.117300
      6 C20         -4.6390    -1.5110     0.5090 ca         1 1W1       0.167900
      7 C21         -4.5750    -0.6610    -0.5770 ca         1 1W1      -0.226000
      8 C22         -3.4110     0.0580    -0.7630 ca         1 1W1       0.195900
      9 C1           5.3860    -2.0920    -0.3170 ca         1 1W1      -0.294300
     10 C2           5.1980    -0.9320     0.4100 ca         1 1W1      -0.028000
     11 C3           3.9330    -0.3530     0.4590 ca         1 1W1      -0.181300
     12 N5           3.0710    -2.0860    -0.9250 nb         1 1W1      -0.745000
     13 N7           1.5790    -0.5030    -0.1370 nh         1 1W1      -0.767300
     14 C9          -0.3220     0.2240    -1.4250 c6         1 1W1      -0.082400
     15 C11         -0.1010     0.8730     1.0250 c5         1 1W1       0.112100
     16 C12          0.9680    -0.1880     1.1400 c6         1 1W1       0.221800
     17 O13          0.4710     2.1720     0.8580 os         1 1W1      -0.425400
     18 C14         -0.4390     2.8570     0.1390 c2         1 1W1       0.786500
     19 N15         -1.3810     2.1990    -0.4130 n2         1 1W1      -0.712900
     20 N16         -0.2030     4.1810     0.0380 nv         1 1W1      -0.895800
     21 C18         -2.4380    -0.8990     1.1590 ca         1 1W1      -0.085000
     22 C19         -3.5850    -1.6490     1.3860 ca         1 1W1      -0.193000
     23 F23         -3.3620     0.8540    -1.8370 f          1 1W1      -0.118900
     24 F24         -5.7590    -2.2180     0.7060 f          1 1W1      -0.136900
     25 C25          3.8000     0.9260     1.0650 cg         1 1W1       0.244800
     26 N26          3.7390     1.9730     1.5440 n1         1 1W1      -0.361800
     27 H1           4.3960    -3.4820    -1.6180 h4         1 1W1       0.022100
     28 H2           1.0830    -1.2810    -2.0090 h1         1 1W1       0.058200
     29 H3           0.0190    -1.8050    -0.7130 h1         1 1W1       0.058200
     30 H4          -5.4050    -0.5580    -1.2640 ha         1 1W1       0.169000
     31 H5           6.3530    -2.5670    -0.3850 ha         1 1W1       0.150000
     32 H6           6.0260    -0.4530     0.9140 ha         1 1W1       0.147000
     33 H7           0.2940     1.0140    -1.8630 hc         1 1W1       0.069700
     34 H8          -1.0370    -0.0700    -2.1930 hc         1 1W1       0.069700
     35 H9          -0.6690     0.8830     1.9620 h1         1 1W1       0.065700
     36 H10          0.5000    -1.0940     1.5470 h1         1 1W1       0.057200
     37 H11          1.7030     0.1210     1.8790 h1         1 1W1       0.057200
     38 H12          0.2820     4.6310     0.7970 hn         1 1W1       0.432800
     39 H13         -0.9420     4.7300    -0.3700 hn         1 1W1       0.432800
     40 H14         -1.6320    -1.0210     1.8670 ha         1 1W1       0.130000
     41 H15         -3.6490    -2.3210     2.2310 ha         1 1W1       0.154000
@<TRIPOS>BOND
     1     1    11 ar  
     2     1    12 ar  
     3     1    13 1   
     4     2     9 ar  
     5     2    12 ar  
     6     2    27 1   
     7     3    13 1   
     8     3    14 1   
     9     3    28 1   
    10     3    29 1   
    11     4     5 1   
    12     4    14 1   
    13     4    15 1   
    14     4    19 1   
    15     5     8 ar  
    16     5    21 ar  
    17     6     7 ar  
    18     6    22 ar  
    19     6    24 1   
    20     7     8 ar  
    21     7    30 1   
    22     8    23 1   
    23     9    10 ar  
    24     9    31 1   
    25    10    11 ar  
    26    10    32 1   
    27    11    25 1   
    28    13    16 1   
    29    14    33 1   
    30    14    34 1   
    31    15    16 1   
    32    15    17 1   
    33    15    35 1   
    34    16    36 1   
    35    16    37 1   
    36    17    18 1   
    37    18    19 2   
    38    18    20 1   
    39    20    38 1   
    40    20    39 1   
    41    21    22 ar  
    42    21    40 1   
    43    22    41 1   
    44    25    26 3   
@<TRIPOS>SUBSTRUCTURE
     1 1W1         1 TEMP              0 ****  ****    0 ROOT
