@<TRIPOS>MOLECULE
1W1
   41    44     1     0     0
SMALL
No Charge or Current Charge


@<TRIPOS>ATOM
      1 C4           2.8820    -1.0040    -0.1410 ca         1 1W1       0.644900
      2 C6           3.9870    -3.0180    -0.3850 ca         1 1W1       0.400900
      3 C8           0.6390    -0.6960    -1.2080 c6         1 1W1       0.206800
      4 C10         -1.0630     0.9270    -0.1900 c5         1 1W1       0.185500
      5 C17         -2.2750    -0.0270     0.0320 ca         1 1W1      -0.117300
      6 C20         -4.5180    -1.7500     0.3490 ca         1 1W1       0.203000
      7 C21         -4.4790    -0.8470    -0.7140 ca         1 1W1      -0.208000
      8 C22         -3.3740     0.0020    -0.8720 ca         1 1W1       0.231000
      9 C1           5.2320    -2.4150    -0.1520 ca         1 1W1      -0.211000
     10 C2           5.2910    -1.0360     0.0950 ca         1 1W1      -0.010000
     11 C3           4.0860    -0.3130     0.1010 ca         1 1W1      -0.116000
     12 N5           2.8270    -2.3280    -0.3810 nb         1 1W1      -0.745000
     13 N7           1.6260    -0.3760    -0.1440 nh         1 1W1      -0.767300
     14 C9          -0.2580     0.5290    -1.4660 c6         1 1W1      -0.082400
     15 C11         -0.1450     0.9990     1.0830 c5         1 1W1       0.135300
     16 C12          0.9960    -0.0660     1.1710 c6         1 1W1       0.221800
     17 O13          0.3870     2.3340     0.9990 os         1 1W1      -0.448600
     18 C14         -0.5660     2.9930     0.3140 c2         1 1W1       0.786500
     19 N15         -1.4680     2.3560    -0.3120 n2         1 1W1      -0.712900
     20 N16         -0.4900     4.3180     0.4650 nv         1 1W1      -1.006200
     21 C18         -2.3450    -0.9630     1.1010 ca         1 1W1      -0.067000
     22 C19         -3.4550    -1.8110     1.2540 ca         1 1W1      -0.175000
     23 F23         -3.3880     0.8490    -1.9270 f          1 1W1      -0.154000
     24 F24         -5.5820    -2.5680     0.5000 f          1 1W1      -0.172000
     25 C25          4.1030     1.1010     0.3280 cg         1 1W1       0.334000
     26 N26          4.1420     2.2530     0.5170 n1         1 1W1      -0.451000
     27 H1           3.9160    -4.0870    -0.5810 h4         1 1W1       0.022100
     28 H2           1.1560    -0.9540    -2.1440 h1         1 1W1       0.058200
     29 H3           0.0220    -1.5610    -0.9210 h1         1 1W1       0.058200
     30 H4          -5.3030    -0.8030    -1.4190 ha         1 1W1       0.151000
     31 H5           6.1370    -3.0170    -0.1670 ha         1 1W1       0.132000
     32 H6           6.2460    -0.5440     0.2740 ha         1 1W1       0.129000
     33 H7           0.3840     1.3600    -1.7880 hc         1 1W1       0.069700
     34 H8          -0.9290     0.3240    -2.3080 hc         1 1W1       0.069700
     35 H9          -0.7380     0.9620     2.0070 h1         1 1W1       0.065700
     36 H10          0.5960    -0.9950     1.6000 h1         1 1W1       0.057200
     37 H11          1.7530     0.2980     1.8820 h1         1 1W1       0.057200
     38 H12          0.0120     4.5660     1.3070 hn         1 1W1       0.488000
     39 H13         -1.3930     4.7610     0.3640 hn         1 1W1       0.488000
     40 H14         -1.5510    -1.0610     1.8330 ha         1 1W1       0.112000
     41 H15         -3.4910    -2.5190     2.0780 ha         1 1W1       0.136000
@<TRIPOS>BOND
     1     1    11 ar  
     2     1    12 ar  
     3     1    13 1   
     4     2     9 ar  
     5     2    12 ar  
     6     2    27 1   
     7     3    13 1   
     8     3    14 1   
     9     3    28 1   
    10     3    29 1   
    11     4     5 1   
    12     4    14 1   
    13     4    15 1   
    14     4    19 1   
    15     5     8 ar  
    16     5    21 ar  
    17     6     7 ar  
    18     6    22 ar  
    19     6    24 1   
    20     7     8 ar  
    21     7    30 1   
    22     8    23 1   
    23     9    10 ar  
    24     9    31 1   
    25    10    11 ar  
    26    10    32 1   
    27    11    25 1   
    28    13    16 1   
    29    14    33 1   
    30    14    34 1   
    31    15    16 1   
    32    15    17 1   
    33    15    35 1   
    34    16    36 1   
    35    16    37 1   
    36    17    18 1   
    37    18    19 2   
    38    18    20 1   
    39    20    38 1   
    40    20    39 1   
    41    21    22 ar  
    42    21    40 1   
    43    22    41 1   
    44    25    26 3   
@<TRIPOS>SUBSTRUCTURE
     1 1W1         1 TEMP              0 ****  ****    0 ROOT
