@<TRIPOS>MOLECULE
1W2
   41    44     1     0     0
SMALL
abcg2


@<TRIPOS>ATOM
      1 C4          -2.3130    -0.1660     0.3370 ca         1 1W2       0.686900
      2 C6          -3.1610    -1.1880     2.2200 ca         1 1W2       0.416900
      3 C8          -1.6890     1.4620    -1.4550 c6         1 1W2       0.229800
      4 C10          0.8380     1.6090    -1.5150 c5         1 1W2       0.154300
      5 C17          1.5400     0.1440     0.4930 ca         1 1W2      -0.125300
      6 C20          2.8210    -2.1510     1.4510 ca         1 1W2       0.202000
      7 C21          1.8220    -2.2840     0.5100 ca         1 1W2      -0.206000
      8 C22          1.2060    -1.1320     0.0580 ca         1 1W2       0.203000
      9 C1          -3.9560    -2.0750     1.5040 ca         1 1W2      -0.233000
     10 C2          -3.8480    -2.0340     0.1300 ca         1 1W2       0.003000
     11 C3          -3.0040    -1.1040    -0.4790 ca         1 1W2      -0.153000
     12 N5          -2.3870    -0.2760     1.6670 nb         1 1W2      -0.759000
     13 N7          -1.5610     0.8490    -0.1460 nh         1 1W2      -0.787300
     14 C9          -0.4290     1.2580    -2.2790 c6         1 1W2      -0.094400
     15 C11          0.8500     1.4210     0.0340 c5         1 1W2       0.168500
     16 C12         -0.5710     1.5280     0.6540 c6         1 1W2       0.229800
     17 N13          1.5940     2.5800     0.5000 n2         1 1W2      -0.739900
     18 C14          1.6230     3.4070    -0.4710 c2         1 1W2       0.800500
     19 O15          1.0930     3.0200    -1.6410 os         1 1W2      -0.476600
     20 N16          2.1660     4.6370    -0.4640 nv         1 1W2      -1.019200
     21 C18          2.5600     0.2090     1.4420 ca         1 1W2      -0.032000
     22 C19          3.2060    -0.9170     1.9300 ca         1 1W2      -0.177000
     23 F23          0.2390    -1.2970    -0.8600 f          1 1W2      -0.176000
     24 F24          3.4280    -3.2560     1.9040 f          1 1W2      -0.173000
     25 C25         -2.7930    -1.2480    -1.8750 cg         1 1W2       0.345000
     26 N26         -2.6340    -1.4370    -3.0030 n1         1 1W2      -0.477000
     27 H1          -3.1580    -1.2170     3.3040 h4         1 1W2       0.020100
     28 H2          -2.5670     1.0990    -1.9810 h1         1 1W2       0.058200
     29 H3          -1.8600     2.5310    -1.2920 h1         1 1W2       0.058200
     30 H4           1.6920     1.0860    -1.9570 h1         1 1W2       0.074700
     31 H5           1.5240    -3.2540     0.1320 ha         1 1W2       0.149000
     32 H6          -4.5960    -2.7850     2.0050 ha         1 1W2       0.131000
     33 H7          -4.3860    -2.7400    -0.4890 ha         1 1W2       0.125000
     34 H8          -0.3660     0.2270    -2.6190 hc         1 1W2       0.076200
     35 H9          -0.4760     1.8710    -3.1820 hc         1 1W2       0.076200
     36 H10         -0.8370     2.5880     0.7150 h1         1 1W2       0.075200
     37 H11         -0.5620     1.1400     1.6690 h1         1 1W2       0.075200
     38 H12          2.3270     5.0570     0.4370 hn         1 1W2       0.492500
     39 H13          1.9070     5.2790    -1.1940 hn         1 1W2       0.492500
     40 H14          2.8560     1.1810     1.8070 ha         1 1W2       0.148000
     41 H15          3.9930    -0.8300     2.6660 ha         1 1W2       0.137000
@<TRIPOS>BOND
     1     1    11 ar  
     2     1    12 ar  
     3     1    13 1   
     4     2     9 ar  
     5     2    12 ar  
     6     2    27 1   
     7     3    13 1   
     8     3    14 1   
     9     3    28 1   
    10     3    29 1   
    11     4    14 1   
    12     4    15 1   
    13     4    19 1   
    14     4    30 1   
    15     5     8 ar  
    16     5    15 1   
    17     5    21 ar  
    18     6     7 ar  
    19     6    22 ar  
    20     6    24 1   
    21     7     8 ar  
    22     7    31 1   
    23     8    23 1   
    24     9    10 ar  
    25     9    32 1   
    26    10    11 ar  
    27    10    33 1   
    28    11    25 1   
    29    13    16 1   
    30    14    34 1   
    31    14    35 1   
    32    15    16 1   
    33    15    17 1   
    34    16    36 1   
    35    16    37 1   
    36    17    18 2   
    37    18    19 1   
    38    18    20 1   
    39    20    38 1   
    40    20    39 1   
    41    21    22 ar  
    42    21    40 1   
    43    22    41 1   
    44    25    26 3   
@<TRIPOS>SUBSTRUCTURE
     1 1W2         1 TEMP              0 ****  ****    0 ROOT
