@<TRIPOS>MOLECULE
1W2
   41    44     1     0     0
SMALL
No Charge or Current Charge


@<TRIPOS>ATOM
      1 C4          -2.6850    -0.1510     0.2190 ca         1 1W2       0.686900
      2 C6          -4.4560    -0.1260     1.6990 ca         1 1W2       0.416900
      3 C8          -1.4910     1.2480    -1.4600 c6         1 1W2       0.229800
      4 C10          0.9880     1.7260    -1.1330 c5         1 1W2       0.154300
      5 C17          1.8460     0.0110     0.4610 ca         1 1W2      -0.125300
      6 C20          3.7070    -2.1400     0.6060 ca         1 1W2       0.202000
      7 C21          2.3370    -2.3920     0.7030 ca         1 1W2      -0.206000
      8 C22          1.4150    -1.3370     0.6320 ca         1 1W2       0.203000
      9 C1          -5.0050    -1.2850     1.1330 ca         1 1W2      -0.233000
     10 C2          -4.3490    -1.9020     0.0590 ca         1 1W2       0.003000
     11 C3          -3.1590    -1.3210    -0.4090 ca         1 1W2      -0.153000
     12 N5          -3.3130     0.4360     1.2530 nb         1 1W2      -0.759000
     13 N7          -1.5110     0.5090    -0.1770 nh         1 1W2      -0.787300
     14 C9          -0.0860     1.1550    -2.0820 c6         1 1W2      -0.094400
     15 C11          0.9060     1.2520     0.3590 c5         1 1W2       0.168500
     16 C12         -0.5840     1.0740     0.8550 c6         1 1W2       0.229800
     17 N13          1.4700     2.4470     1.0650 n2         1 1W2      -0.739900
     18 C14          1.3760     3.3840     0.2150 c2         1 1W2       0.800500
     19 O15          0.8710     3.1500    -1.0100 os         1 1W2      -0.476600
     20 N16          1.6430     4.6720     0.4260 nv         1 1W2      -1.019200
     21 C18          3.2460     0.2300     0.3690 ca         1 1W2      -0.032000
     22 C19          4.1640    -0.8310     0.4390 ca         1 1W2      -0.177000
     23 F23          0.1130    -1.6700     0.7360 f          1 1W2      -0.176000
     24 F24          4.5880    -3.1600     0.6750 f          1 1W2      -0.173000
     25 C25         -2.4430    -1.9350    -1.4850 cg         1 1W2       0.345000
     26 N26         -1.8770    -2.4450    -2.3690 n1         1 1W2      -0.477000
     27 H1          -4.9460     0.3700     2.5360 h4         1 1W2       0.020100
     28 H2          -2.2240     0.8330    -2.1670 h1         1 1W2       0.058200
     29 H3          -1.7580     2.3040    -1.2980 h1         1 1W2       0.058200
     30 H4           1.9770     1.5160    -1.5650 h1         1 1W2       0.074700
     31 H5           1.9850    -3.4110     0.8330 ha         1 1W2       0.149000
     32 H6          -5.9280    -1.6970     1.5310 ha         1 1W2       0.131000
     33 H7          -4.7520    -2.8080    -0.3910 ha         1 1W2       0.125000
     34 H8           0.1440     0.1040    -2.3020 hc         1 1W2       0.076200
     35 H9          -0.0620     1.6900    -3.0400 hc         1 1W2       0.076200
     36 H10         -0.9750     2.0580     1.1550 h1         1 1W2       0.075200
     37 H11         -0.5850     0.4650     1.7700 h1         1 1W2       0.075200
     38 H12          1.5770     4.8980     1.4080 hn         1 1W2       0.492500
     39 H13          1.1010     5.2690    -0.1830 hn         1 1W2       0.492500
     40 H14          3.6370     1.2380     0.2390 ha         1 1W2       0.148000
     41 H15          5.2310    -0.6370     0.3650 ha         1 1W2       0.137000
@<TRIPOS>BOND
     1     1    11 ar  
     2     1    12 ar  
     3     1    13 1   
     4     2     9 ar  
     5     2    12 ar  
     6     2    27 1   
     7     3    13 1   
     8     3    14 1   
     9     3    28 1   
    10     3    29 1   
    11     4    14 1   
    12     4    15 1   
    13     4    19 1   
    14     4    30 1   
    15     5     8 ar  
    16     5    15 1   
    17     5    21 ar  
    18     6     7 ar  
    19     6    22 ar  
    20     6    24 1   
    21     7     8 ar  
    22     7    31 1   
    23     8    23 1   
    24     9    10 ar  
    25     9    32 1   
    26    10    11 ar  
    27    10    33 1   
    28    11    25 1   
    29    13    16 1   
    30    14    34 1   
    31    14    35 1   
    32    15    16 1   
    33    15    17 1   
    34    16    36 1   
    35    16    37 1   
    36    17    18 2   
    37    18    19 1   
    38    18    20 1   
    39    20    38 1   
    40    20    39 1   
    41    21    22 ar  
    42    21    40 1   
    43    22    41 1   
    44    25    26 3   
@<TRIPOS>SUBSTRUCTURE
     1 1W2         1 TEMP              0 ****  ****    0 ROOT
