@<TRIPOS>MOLECULE
1W3
   42    44     1     0     0
SMALL
No Charge or Current Charge


@<TRIPOS>ATOM
      1 CAC          1.5630     2.1270     1.0880 c3         1 1W3      -0.065900
      2 CAR          1.9970     0.9430     0.2460 cc         1 1W3       0.043600
      3 CAX          3.4150     0.5580     0.1440 ca         1 1W3      -0.186800
      4 CAJ          4.4250     1.3210     0.7780 ca         1 1W3      -0.013000
      5 CAI          5.7760     0.9450     0.6810 ca         1 1W3      -0.235000
      6 CAQ          6.1390    -0.1910    -0.0500 ca         1 1W3       0.187100
      7 OAE          7.4460    -0.5580    -0.1470 oh         1 1W3      -0.521100
      8 CAM          5.1540    -0.9490    -0.6880 ca         1 1W3      -0.179000
      9 CAW          3.8070    -0.5740    -0.5920 ca         1 1W3       0.209100
     10 OAN          2.8820    -1.3300    -1.2420 os         1 1W3      -0.334200
     11 CAV          1.5510    -1.0440    -1.2540 c          1 1W3       0.679300
     12 OAD          0.7780    -1.7480    -1.8920 o          1 1W3      -0.488000
     13 CAU          1.1000     0.1490    -0.4650 cd         1 1W3      -0.174200
     14 CAH         -0.3420     0.4520    -0.4900 cf         1 1W3      -0.186000
     15 CAG         -1.3570    -0.3800    -0.1210 ce         1 1W3      -0.110200
     16 CAS         -2.8270    -0.1210    -0.0830 ca         1 1W3      -0.093800
     17 CAK         -3.6810    -1.0890     0.4780 ca         1 1W3      -0.058500
     18 CAO         -5.0730    -0.8850     0.5340 ca         1 1W3      -0.140300
     19 CAA         -5.9620    -1.9620     1.1540 c3         1 1W3      -0.041300
     20 CAT         -5.6170     0.3110     0.0160 ca         1 1W3       0.148100
     21 OAF         -6.9670     0.5270     0.0620 oh         1 1W3      -0.537100
     22 CAP         -4.7740     1.2890    -0.5520 ca         1 1W3      -0.140300
     23 CAB         -5.3470     2.5860    -1.1190 c3         1 1W3      -0.041300
     24 CAL         -3.3840     1.0660    -0.5980 ca         1 1W3      -0.058500
     25 H1           1.8870     3.0680     0.6290 hc         1 1W3       0.053367
     26 H2           0.4780     2.1820     1.2240 hc         1 1W3       0.053367
     27 H3           1.9960     2.0710     2.0940 hc         1 1W3       0.053367
     28 H4           4.1810     2.2130     1.3500 ha         1 1W3       0.118000
     29 H5           6.5340     1.5460     1.1780 ha         1 1W3       0.120000
     30 H6           7.9830     0.0880     0.3590 ho         1 1W3       0.472000
     31 H7           5.4320    -1.8280    -1.2620 ha         1 1W3       0.155000
     32 H8          -0.5880     1.4750    -0.7760 ha         1 1W3       0.168000
     33 H9          -1.0780    -1.3840     0.2050 ha         1 1W3       0.195000
     34 H10         -3.2580    -2.0090     0.8770 ha         1 1W3       0.113500
     35 H11         -6.5130    -1.5730     2.0190 hc         1 1W3       0.042533
     36 H12         -6.6900    -2.3430     0.4270 hc         1 1W3       0.042533
     37 H13         -5.3770    -2.8210     1.5040 hc         1 1W3       0.042533
     38 H14         -7.3860    -0.2510     0.4850 ho         1 1W3       0.466000
     39 H15         -5.8810     3.1510    -0.3450 hc         1 1W3       0.042533
     40 H16         -4.5650     3.2400    -1.5210 hc         1 1W3       0.042533
     41 H17         -6.0540     2.3810    -1.9320 hc         1 1W3       0.042533
     42 H18         -2.7430     1.8220    -1.0430 ha         1 1W3       0.113500
@<TRIPOS>BOND
     1     1     2 1   
     2     1    25 1   
     3     1    26 1   
     4     1    27 1   
     5     2     3 1   
     6     2    13 2   
     7     3     4 ar  
     8     3     9 ar  
     9     4     5 ar  
    10     4    28 1   
    11     5     6 ar  
    12     5    29 1   
    13     6     7 1   
    14     6     8 ar  
    15     7    30 1   
    16     8     9 ar  
    17     8    31 1   
    18     9    10 1   
    19    10    11 1   
    20    11    12 2   
    21    11    13 1   
    22    13    14 1   
    23    14    15 2   
    24    14    32 1   
    25    15    16 1   
    26    15    33 1   
    27    16    17 ar  
    28    16    24 ar  
    29    17    18 ar  
    30    17    34 1   
    31    18    19 1   
    32    18    20 ar  
    33    19    35 1   
    34    19    36 1   
    35    19    37 1   
    36    20    21 1   
    37    20    22 ar  
    38    21    38 1   
    39    22    23 1   
    40    22    24 ar  
    41    23    39 1   
    42    23    40 1   
    43    23    41 1   
    44    24    42 1   
@<TRIPOS>SUBSTRUCTURE
     1 1W3         1 TEMP              0 ****  ****    0 ROOT
