@<TRIPOS>MOLECULE
1W3
   42    44     1     0     0
SMALL
bcc


@<TRIPOS>ATOM
      1 CAC          1.6090     2.3470     0.5690 c3         1 1W3      -0.065900
      2 CAR          1.9890     0.9460     0.2050 cc         1 1W3       0.043600
      3 CAX          3.3940     0.6420     0.1120 ca         1 1W3      -0.186800
      4 CAJ          4.4250     1.5770     0.2850 ca         1 1W3      -0.031000
      5 CAI          5.7500     1.2210     0.1740 ca         1 1W3      -0.253000
      6 CAQ          6.0950    -0.1060    -0.1140 ca         1 1W3       0.187100
      7 OAE          7.3640    -0.5140    -0.2320 oh         1 1W3      -0.482100
      8 CAM          5.1000    -1.0580    -0.2900 ca         1 1W3      -0.197000
      9 CAW          3.7780    -0.6670    -0.1790 ca         1 1W3       0.209100
     10 OAN          2.8450    -1.6220    -0.3660 os         1 1W3      -0.334200
     11 CAV          1.5100    -1.3910    -0.3270 c          1 1W3       0.754800
     12 OAD          0.8090    -2.3490    -0.5440 o          1 1W3      -0.563500
     13 CAU          1.0590    -0.0330    -0.0360 cd         1 1W3      -0.174200
     14 CAH         -0.3720     0.2610    -0.0640 cf         1 1W3      -0.136000
     15 CAG         -1.4000    -0.5830     0.1170 ce         1 1W3      -0.060200
     16 CAS         -2.8160    -0.2270     0.0620 ca         1 1W3      -0.093800
     17 CAK         -3.7620    -1.2370     0.2400 ca         1 1W3      -0.076500
     18 CAO         -5.1280    -0.9940     0.1940 ca         1 1W3      -0.140300
     19 CAA         -6.1210    -2.1060     0.3790 c3         1 1W3      -0.041300
     20 CAT         -5.5590     0.3150    -0.0360 ca         1 1W3       0.148100
     21 OAF         -6.8660     0.6430    -0.0960 oh         1 1W3      -0.498100
     22 CAP         -4.6420     1.3600    -0.2150 ca         1 1W3      -0.140300
     23 CAB         -5.1290     2.7570    -0.4590 c3         1 1W3      -0.041300
     24 CAL         -3.2900     1.0690    -0.1640 ca         1 1W3      -0.076500
     25 H1           1.7800     3.0250    -0.2700 hc         1 1W3       0.053367
     26 H2           0.5720     2.4420     0.8710 hc         1 1W3       0.053367
     27 H3           2.2170     2.7050     1.3990 hc         1 1W3       0.053367
     28 H4           4.1870     2.6090     0.5040 ha         1 1W3       0.136000
     29 H5           6.5220     1.9680     0.3080 ha         1 1W3       0.138000
     30 H6           7.9740     0.2200    -0.0940 ho         1 1W3       0.433000
     31 H7           5.3510    -2.0860    -0.5160 ha         1 1W3       0.173000
     32 H8          -0.6060     1.2980    -0.2690 ha         1 1W3       0.118000
     33 H9          -1.2110    -1.6270     0.3310 ha         1 1W3       0.145000
     34 H10         -3.4230    -2.2510     0.4210 ha         1 1W3       0.131500
     35 H11         -6.7900    -1.9290     1.2250 hc         1 1W3       0.042533
     36 H12         -6.7460    -2.2490    -0.5070 hc         1 1W3       0.042533
     37 H13         -5.6140    -3.0500     0.5670 hc         1 1W3       0.042533
     38 H14         -7.4260    -0.1270     0.0460 ho         1 1W3       0.427000
     39 H15         -5.7410     3.1230     0.3680 hc         1 1W3       0.042533
     40 H16         -4.2910     3.4420    -0.5780 hc         1 1W3       0.042533
     41 H17         -5.7420     2.8210    -1.3600 hc         1 1W3       0.042533
     42 H18         -2.5920     1.8870    -0.2990 ha         1 1W3       0.131500
@<TRIPOS>BOND
     1     1     2 1   
     2     1    25 1   
     3     1    26 1   
     4     1    27 1   
     5     2     3 1   
     6     2    13 2   
     7     3     4 ar  
     8     3     9 ar  
     9     4     5 ar  
    10     4    28 1   
    11     5     6 ar  
    12     5    29 1   
    13     6     7 1   
    14     6     8 ar  
    15     7    30 1   
    16     8     9 ar  
    17     8    31 1   
    18     9    10 1   
    19    10    11 1   
    20    11    12 2   
    21    11    13 1   
    22    13    14 1   
    23    14    15 2   
    24    14    32 1   
    25    15    16 1   
    26    15    33 1   
    27    16    17 ar  
    28    16    24 ar  
    29    17    18 ar  
    30    17    34 1   
    31    18    19 1   
    32    18    20 ar  
    33    19    35 1   
    34    19    36 1   
    35    19    37 1   
    36    20    21 1   
    37    20    22 ar  
    38    21    38 1   
    39    22    23 1   
    40    22    24 ar  
    41    23    39 1   
    42    23    40 1   
    43    23    41 1   
    44    24    42 1   
@<TRIPOS>SUBSTRUCTURE
     1 1W3         1 TEMP              0 ****  ****    0 ROOT
