@<TRIPOS>MOLECULE
1W4
   54    56     1     0     0
SMALL
No Charge or Current Charge


@<TRIPOS>ATOM
      1 C1          -2.7320    -0.5430    -0.1050 c          1 1W4       0.623300
      2 O2          -3.8480    -1.0520    -0.1220 o          1 1W4      -0.501100
      3 C3          -1.4770    -1.4030    -0.0520 ca         1 1W4      -0.121600
      4 C4          -1.6010    -2.8090     0.0400 ca         1 1W4      -0.144000
      5 C5          -0.4710    -3.6480     0.0840 ca         1 1W4       0.334000
      6 C6           0.8080    -3.0630     0.0360 ca         1 1W4      -0.162000
      7 C7           0.9660    -1.6690    -0.0490 ca         1 1W4      -0.010800
      8 C8          -0.1760    -0.8460    -0.0980 ca         1 1W4      -0.113000
      9 N9          -0.6180    -5.0580     0.1740 nh         1 1W4      -0.835400
     10 C10          0.3860    -5.9800    -0.4090 c3         1 1W4       0.222100
     11 C11         -1.7770    -5.6740     0.8640 c3         1 1W4       0.222100
     12 C12          2.3450    -1.0990    -0.0960 ce         1 1W4      -0.167200
     13 C13          2.7510     0.1920     0.0900 cf         1 1W4      -0.131200
     14 C14          4.1130     0.7670     0.0490 ca         1 1W4      -0.088800
     15 C15          4.2830     2.1440     0.2900 ca         1 1W4      -0.061000
     16 C16          5.5610     2.7360     0.2610 ca         1 1W4      -0.137800
     17 C17          6.6890     1.9320    -0.0150 ca         1 1W4       0.146100
     18 C18          6.5350     0.5510    -0.2590 ca         1 1W4      -0.137800
     19 C19          5.2490    -0.0220    -0.2260 ca         1 1W4      -0.061000
     20 C26          5.6970     4.2340     0.5300 c3         1 1W4      -0.041800
     21 C27          7.7450    -0.3310    -0.5590 c3         1 1W4      -0.041800
     22 O28          7.9370     2.4900    -0.0470 oh         1 1W4      -0.536100
     23 S1          -2.4860     1.2770    -0.1310 ss         1 1W4      -0.161600
     24 H1          -2.5900    -3.2570     0.0630 ha         1 1W4       0.133000
     25 H2           1.6890    -3.6940     0.0830 ha         1 1W4       0.113000
     26 H3          -0.0420     0.2260    -0.1850 ha         1 1W4       0.127000
     27 H4           1.2020    -6.1600     0.3020 h1         1 1W4       0.036700
     28 H5          -0.0730    -6.9440    -0.6660 h1         1 1W4       0.036700
     29 H6           0.8080    -5.5590    -1.3320 h1         1 1W4       0.036700
     30 H7          -2.6260    -5.7770     0.1750 h1         1 1W4       0.036700
     31 H8          -1.5170    -6.6690     1.2490 h1         1 1W4       0.036700
     32 H9          -2.0880    -5.0590     1.7200 h1         1 1W4       0.036700
     33 H10          3.1080    -1.8490    -0.2970 ha         1 1W4       0.170000
     34 H11          1.9790     0.9280     0.3110 ha         1 1W4       0.172000
     35 H12          3.4130     2.7610     0.5030 ha         1 1W4       0.112500
     36 H13          5.1440    -1.0860    -0.4160 ha         1 1W4       0.112500
     37 H14          6.3280     4.4250     1.4060 hc         1 1W4       0.042867
     38 H15          6.1370     4.7530    -0.3300 hc         1 1W4       0.042867
     39 H16          4.7240     4.7020     0.7250 hc         1 1W4       0.042867
     40 H17          8.4600    -0.3140     0.2720 hc         1 1W4       0.042867
     41 H18          7.4600    -1.3770    -0.7260 hc         1 1W4       0.042867
     42 H19          8.2690     0.0130    -1.4590 hc         1 1W4       0.042867
     43 H20          7.8500     3.4460     0.1440 ho         1 1W4       0.465000
     44 C2          -4.2240     1.7180    -0.1860 ca         1 1W4      -0.138000
     45 C9          -4.9350     1.9200     1.0120 ca         1 1W4      -0.028500
     46 C20         -6.2970     2.2700     0.9670 ca         1 1W4      -0.166500
     47 C21         -6.9390     2.4180    -0.2720 ca         1 1W4       0.199000
     48 C22         -6.2320     2.2220    -1.4680 ca         1 1W4      -0.166500
     49 C23         -4.8700     1.8730    -1.4270 ca         1 1W4      -0.028500
     50 F1          -8.2470     2.7540    -0.3130 f          1 1W4      -0.174000
     51 H21         -4.4360     1.8060     1.9710 ha         1 1W4       0.129000
     52 H22         -6.8520     2.4250     1.8880 ha         1 1W4       0.134000
     53 H23         -6.7370     2.3410    -2.4230 ha         1 1W4       0.134000
     54 H24         -4.3200     1.7210    -2.3530 ha         1 1W4       0.129000
@<TRIPOS>BOND
     1     1     2 2   
     2     1     3 1   
     3     1    23 1   
     4     3     4 ar  
     5     3     8 ar  
     6     4     5 ar  
     7     4    24 1   
     8     5     6 ar  
     9     5     9 1   
    10     6     7 ar  
    11     6    25 1   
    12     7     8 ar  
    13     7    12 1   
    14     8    26 1   
    15     9    10 1   
    16     9    11 1   
    17    10    27 1   
    18    10    28 1   
    19    10    29 1   
    20    11    30 1   
    21    11    31 1   
    22    11    32 1   
    23    12    13 2   
    24    12    33 1   
    25    13    14 1   
    26    13    34 1   
    27    14    15 ar  
    28    14    19 ar  
    29    15    16 ar  
    30    15    35 1   
    31    16    17 ar  
    32    16    20 1   
    33    17    18 ar  
    34    17    22 1   
    35    18    19 ar  
    36    18    21 1   
    37    19    36 1   
    38    20    37 1   
    39    20    38 1   
    40    20    39 1   
    41    21    40 1   
    42    21    41 1   
    43    21    42 1   
    44    22    43 1   
    45    23    44 1   
    46    44    45 ar  
    47    44    49 ar  
    48    45    46 ar  
    49    45    51 1   
    50    46    47 ar  
    51    46    52 1   
    52    47    48 ar  
    53    47    50 1   
    54    48    49 ar  
    55    48    53 1   
    56    49    54 1   
@<TRIPOS>SUBSTRUCTURE
     1 1W4         1 TEMP              0 ****  ****    0 ROOT
