@<TRIPOS>MOLECULE
1W4
   54    56     1     0     0
SMALL
abcg2


@<TRIPOS>ATOM
      1 C1          -2.6930    -0.6640    -0.0320 c          1 1W4       0.623300
      2 O2          -3.7900    -1.1450    -0.1150 o          1 1W4      -0.501100
      3 C3          -1.4380    -1.4610    -0.0300 ca         1 1W4      -0.121600
      4 C4          -1.5760    -2.8450    -0.0130 ca         1 1W4      -0.144000
      5 C5          -0.4440    -3.6740    -0.0110 ca         1 1W4       0.334000
      6 C6           0.8140    -3.0450    -0.0260 ca         1 1W4      -0.162000
      7 C7           0.9570    -1.6600    -0.0440 ca         1 1W4      -0.010800
      8 C8          -0.1870    -0.8600    -0.0480 ca         1 1W4      -0.113000
      9 N9          -0.5590    -5.0310     0.0070 nh         1 1W4      -0.835400
     10 C10          0.6220    -5.8580     0.0260 c3         1 1W4       0.222100
     11 C11         -1.8660    -5.6380     0.0720 c3         1 1W4       0.222100
     12 C12          2.3130    -1.1140    -0.0530 ce         1 1W4      -0.167200
     13 C13          2.6520     0.1810    -0.0400 cf         1 1W4      -0.131200
     14 C14          4.0010     0.7330    -0.0400 ca         1 1W4      -0.088800
     15 C15          4.1610     2.1160    -0.0150 ca         1 1W4      -0.061000
     16 C16          5.4110     2.7190    -0.0080 ca         1 1W4      -0.137800
     17 C17          6.5400     1.8990    -0.0280 ca         1 1W4       0.146100
     18 C18          6.4240     0.5050    -0.0540 ca         1 1W4      -0.137800
     19 C19          5.1580    -0.0500    -0.0590 ca         1 1W4      -0.061000
     20 C26          5.5520     4.2140     0.0200 c3         1 1W4      -0.041800
     21 C27          7.6530    -0.3530    -0.0750 c3         1 1W4      -0.041800
     22 O28          7.7950     2.4000    -0.0240 oh         1 1W4      -0.536100
     23 S1          -2.4670     1.1100     0.1200 ss         1 1W4      -0.161600
     24 H1          -2.5710    -3.2670    -0.0000 ha         1 1W4       0.133000
     25 H2           1.7140    -3.6460    -0.0220 ha         1 1W4       0.113000
     26 H3          -0.0900     0.2160    -0.0730 ha         1 1W4       0.127000
     27 H4           1.2410    -5.6840     0.9120 h1         1 1W4       0.036700
     28 H5           0.3300    -6.9030     0.0330 h1         1 1W4       0.036700
     29 H6           1.2500    -5.7050    -0.8550 h1         1 1W4       0.036700
     30 H7          -2.4820    -5.3870    -0.7950 h1         1 1W4       0.036700
     31 H8          -1.7650    -6.7180     0.0930 h1         1 1W4       0.036700
     32 H9          -2.4140    -5.3430     0.9700 h1         1 1W4       0.036700
     33 H10          3.0980    -1.8630    -0.0650 ha         1 1W4       0.170000
     34 H11          1.8660     0.9300    -0.0250 ha         1 1W4       0.172000
     35 H12          3.2810     2.7510     0.0010 ha         1 1W4       0.112500
     36 H13          5.0790    -1.1300    -0.0790 ha         1 1W4       0.112500
     37 H14          6.0780     4.5650     0.9120 hc         1 1W4       0.042867
     38 H15          6.0840     4.5980    -0.8550 hc         1 1W4       0.042867
     39 H16          4.5760     4.6950     0.0260 hc         1 1W4       0.042867
     40 H17          8.2810    -0.1820     0.8000 hc         1 1W4       0.042867
     41 H18          7.3860    -1.4090    -0.0900 hc         1 1W4       0.042867
     42 H19          8.2700    -0.1550    -0.9520 hc         1 1W4       0.042867
     43 H20          7.7790     3.3600    -0.0090 ho         1 1W4       0.465000
     44 C2          -4.1480     1.6400     0.0430 ca         1 1W4      -0.138000
     45 C9          -4.8710     1.8280     1.2140 ca         1 1W4      -0.028500
     46 C20         -6.1800     2.2790     1.1640 ca         1 1W4      -0.166500
     47 C21         -6.7460     2.5350    -0.0710 ca         1 1W4       0.199000
     48 C22         -6.0480     2.3560    -1.2500 ca         1 1W4      -0.166500
     49 C23         -4.7390     1.9080    -1.1860 ca         1 1W4      -0.028500
     50 F1          -8.0070     2.9730    -0.1250 f          1 1W4      -0.174000
     51 H21         -4.4120     1.6210     2.1710 ha         1 1W4       0.129000
     52 H22         -6.7530     2.4300     2.0690 ha         1 1W4       0.134000
     53 H23         -6.5180     2.5670    -2.2010 ha         1 1W4       0.134000
     54 H24         -4.1760     1.7640    -2.0980 ha         1 1W4       0.129000
@<TRIPOS>BOND
     1     1     2 2   
     2     1     3 1   
     3     1    23 1   
     4     3     4 ar  
     5     3     8 ar  
     6     4     5 ar  
     7     4    24 1   
     8     5     6 ar  
     9     5     9 1   
    10     6     7 ar  
    11     6    25 1   
    12     7     8 ar  
    13     7    12 1   
    14     8    26 1   
    15     9    10 1   
    16     9    11 1   
    17    10    27 1   
    18    10    28 1   
    19    10    29 1   
    20    11    30 1   
    21    11    31 1   
    22    11    32 1   
    23    12    13 2   
    24    12    33 1   
    25    13    14 1   
    26    13    34 1   
    27    14    15 ar  
    28    14    19 ar  
    29    15    16 ar  
    30    15    35 1   
    31    16    17 ar  
    32    16    20 1   
    33    17    18 ar  
    34    17    22 1   
    35    18    19 ar  
    36    18    21 1   
    37    19    36 1   
    38    20    37 1   
    39    20    38 1   
    40    20    39 1   
    41    21    40 1   
    42    21    41 1   
    43    21    42 1   
    44    22    43 1   
    45    23    44 1   
    46    44    45 ar  
    47    44    49 ar  
    48    45    46 ar  
    49    45    51 1   
    50    46    47 ar  
    51    46    52 1   
    52    47    48 ar  
    53    47    50 1   
    54    48    49 ar  
    55    48    53 1   
    56    49    54 1   
@<TRIPOS>SUBSTRUCTURE
     1 1W4         1 TEMP              0 ****  ****    0 ROOT
