@<TRIPOS>MOLECULE
1W6
   38    40     1     0     0
SMALL
No Charge or Current Charge


@<TRIPOS>ATOM
      1 O12          1.9690    -2.9740     0.0010 o          1 1W6      -0.531100
      2 C12          1.7220    -1.7720     0.0020 c          1 1W6       0.547800
      3 C26          2.7840    -0.7060     0.0070 cc         1 1W6       0.310200
      4 S27          2.3130     1.0170     0.0100 ss         1 1W6       0.089800
      5 C28          4.0320     1.3670     0.0150 ca         1 1W6      -0.180000
      6 C34          4.6080     2.6470     0.0190 ca         1 1W6      -0.076000
      7 C33          6.0120     2.7530     0.0230 ca         1 1W6      -0.088000
      8 C32          6.8070     1.5870     0.0230 ca         1 1W6      -0.115000
      9 C31          6.2000     0.3150     0.0180 ca         1 1W6      -0.041000
     10 C29          4.7980     0.2200     0.0150 ca         1 1W6       0.076400
     11 N30          4.1060    -0.9840     0.0100 nd         1 1W6      -0.465100
     12 N13          0.4120    -1.2970    -0.0000 ns         1 1W6      -0.379100
     13 C14         -0.7850    -2.0140    -0.0050 cc         1 1W6      -0.004400
     14 S15         -0.9530    -3.7790    -0.0090 ss         1 1W6       0.327000
     15 C16         -2.7020    -3.6420    -0.0130 cc         1 1W6      -0.294000
     16 C17         -3.0970    -2.3300    -0.0120 cd         1 1W6      -0.080000
     17 C18         -2.0190    -1.3820    -0.0070 cd         1 1W6      -0.279600
     18 C19         -2.1710     0.1090    -0.0040 c          1 1W6       0.672700
     19 O19         -1.2280     0.8890     0.0000 o          1 1W6      -0.579100
     20 N20         -3.4700     0.5180    -0.0070 ns         1 1W6      -0.459500
     21 C21         -3.9970     1.7670    -0.0050 c          1 1W6       0.646100
     22 O22         -3.3750     2.8170    -0.0010 o          1 1W6      -0.473000
     23 O21         -5.3550     1.6520    -0.0090 os         1 1W6      -0.469100
     24 C37         -6.1310     2.8620    -0.0090 c3         1 1W6       0.184600
     25 C38         -7.6130     2.4580    -0.0130 c3         1 1W6      -0.100100
     26 H1           3.9860     3.5400     0.0190 ha         1 1W6       0.129000
     27 H2           6.4830     3.7330     0.0260 ha         1 1W6       0.118000
     28 H3           7.8920     1.6700     0.0260 ha         1 1W6       0.121000
     29 H4           6.8090    -0.5860     0.0180 ha         1 1W6       0.137000
     30 H5           0.3190    -0.2840     0.0020 hn         1 1W6       0.377500
     31 H6          -3.3050    -4.5400    -0.0170 h4         1 1W6       0.155000
     32 H7          -4.1500    -2.0600    -0.0140 ha         1 1W6       0.129000
     33 H8          -4.1550    -0.2160    -0.0100 hn         1 1W6       0.336500
     34 H9          -5.9180     3.4650     0.8850 h1         1 1W6       0.052700
     35 H10         -5.9130     3.4680    -0.8980 h1         1 1W6       0.052700
     36 H11         -7.8490     1.8670    -0.9060 hc         1 1W6       0.049033
     37 H12         -7.8540     1.8630     0.8760 hc         1 1W6       0.049033
     38 H13         -8.2490     3.3500    -0.0130 hc         1 1W6       0.049033
@<TRIPOS>BOND
     1     1     2 2   
     2     2     3 1   
     3     2    12 1   
     4     3     4 1   
     5     3    11 2   
     6     4     5 1   
     7     5     6 ar  
     8     5    10 ar  
     9     6     7 ar  
    10     6    26 1   
    11     7     8 ar  
    12     7    27 1   
    13     8     9 ar  
    14     8    28 1   
    15     9    10 ar  
    16     9    29 1   
    17    10    11 1   
    18    12    13 1   
    19    12    30 1   
    20    13    14 1   
    21    13    17 2   
    22    14    15 1   
    23    15    16 2   
    24    15    31 1   
    25    16    17 1   
    26    16    32 1   
    27    17    18 1   
    28    18    19 2   
    29    18    20 1   
    30    20    21 1   
    31    20    33 1   
    32    21    22 2   
    33    21    23 1   
    34    23    24 1   
    35    24    25 1   
    36    24    34 1   
    37    24    35 1   
    38    25    36 1   
    39    25    37 1   
    40    25    38 1   
@<TRIPOS>SUBSTRUCTURE
     1 1W6         1 TEMP              0 ****  ****    0 ROOT
