@<TRIPOS>MOLECULE
1W6
   38    40     1     0     0
SMALL
abcg2


@<TRIPOS>ATOM
      1 O12          1.9000    -2.7570    -0.1130 o          1 1W6      -0.531100
      2 C12          1.6510    -1.5700    -0.0800 c          1 1W6       0.547800
      3 C26          2.7280    -0.5450    -0.0960 cc         1 1W6       0.310200
      4 S27          2.4520     1.1040    -0.5880 ss         1 1W6       0.089800
      5 C28          4.1240     1.4240    -0.3060 ca         1 1W6      -0.180000
      6 C34          4.8260     2.6140    -0.4660 ca         1 1W6      -0.076000
      7 C33          6.1770     2.6020    -0.1800 ca         1 1W6      -0.088000
      8 C32          6.8210     1.4340     0.2540 ca         1 1W6      -0.115000
      9 C31          6.1240     0.2550     0.4100 ca         1 1W6      -0.041000
     10 C29          4.7550     0.2440     0.1260 ca         1 1W6       0.076400
     11 N30          3.9340    -0.8450     0.2280 nd         1 1W6      -0.465100
     12 N13          0.3880    -1.0810    -0.0260 ns         1 1W6      -0.379100
     13 C14         -0.7420    -1.8570    -0.0430 cc         1 1W6      -0.004400
     14 S15         -0.6910    -3.5730    -0.1360 ss         1 1W6       0.327000
     15 C16         -2.4100    -3.6620    -0.1090 cc         1 1W6      -0.294000
     16 C17         -2.9880    -2.4430    -0.0310 cd         1 1W6      -0.080000
     17 C18         -2.0380    -1.3760     0.0070 cd         1 1W6      -0.279600
     18 C19         -2.3170     0.0630     0.0910 c          1 1W6       0.672700
     19 O19         -1.4270     0.8930     0.1860 o          1 1W6      -0.579100
     20 N20         -3.6470     0.4050     0.0480 ns         1 1W6      -0.459500
     21 C21         -4.1620     1.6840     0.1690 c          1 1W6       0.646100
     22 O22         -3.5290     2.6850     0.3710 o          1 1W6      -0.473000
     23 O21         -5.4770     1.6200     0.0290 os         1 1W6      -0.469100
     24 C37         -6.2200     2.8440     0.1680 c3         1 1W6       0.184600
     25 C38         -7.6750     2.5250    -0.0740 c3         1 1W6      -0.100100
     26 H1           4.3350     3.5170    -0.8000 ha         1 1W6       0.129000
     27 H2           6.7500     3.5120    -0.2930 ha         1 1W6       0.118000
     28 H3           7.8810     1.4620     0.4660 ha         1 1W6       0.121000
     29 H4           6.6120    -0.6510     0.7430 ha         1 1W6       0.137000
     30 H5           0.1910    -0.0890     0.0960 hn         1 1W6       0.377500
     31 H6          -2.8970    -4.6230    -0.1470 h4         1 1W6       0.155000
     32 H7          -4.0610    -2.3250     0.0060 ha         1 1W6       0.129000
     33 H8          -4.3270    -0.3280    -0.0880 hn         1 1W6       0.336500
     34 H9          -6.0690     3.2480     1.1700 h1         1 1W6       0.052700
     35 H10         -5.8560     3.5780    -0.5530 h1         1 1W6       0.052700
     36 H11         -7.8420     2.1520    -1.0840 hc         1 1W6       0.049033
     37 H12         -8.0490     1.7900     0.6380 hc         1 1W6       0.049033
     38 H13         -8.2610     3.4360     0.0480 hc         1 1W6       0.049033
@<TRIPOS>BOND
     1     1     2 2   
     2     2     3 1   
     3     2    12 1   
     4     3     4 1   
     5     3    11 2   
     6     4     5 1   
     7     5     6 ar  
     8     5    10 ar  
     9     6     7 ar  
    10     6    26 1   
    11     7     8 ar  
    12     7    27 1   
    13     8     9 ar  
    14     8    28 1   
    15     9    10 ar  
    16     9    29 1   
    17    10    11 1   
    18    12    13 1   
    19    12    30 1   
    20    13    14 1   
    21    13    17 2   
    22    14    15 1   
    23    15    16 2   
    24    15    31 1   
    25    16    17 1   
    26    16    32 1   
    27    17    18 1   
    28    18    19 2   
    29    18    20 1   
    30    20    21 1   
    31    20    33 1   
    32    21    22 2   
    33    21    23 1   
    34    23    24 1   
    35    24    25 1   
    36    24    34 1   
    37    24    35 1   
    38    25    36 1   
    39    25    37 1   
    40    25    38 1   
@<TRIPOS>SUBSTRUCTURE
     1 1W6         1 TEMP              0 ****  ****    0 ROOT
