@<TRIPOS>MOLECULE
1W7
   44    46     1     0     0
SMALL
No Charge or Current Charge


@<TRIPOS>ATOM
      1 C1           3.5240    -0.1500    -0.4210 ca         1 1W7      -0.008000
      2 C2           3.3880     0.8080     0.6080 ca         1 1W7      -0.112300
      3 C3           2.3820    -0.4810    -1.1820 ca         1 1W7      -0.142000
      4 C4           1.1760     0.2230    -1.0140 ca         1 1W7      -0.045000
      5 C5           1.0680     1.2370    -0.0400 ca         1 1W7       0.207000
      6 C7           2.1810     1.5150     0.7690 ca         1 1W7      -0.108000
      7 C9           4.5630     1.0850     1.5410 c6         1 1W7      -0.025100
      8 C10         -5.7200    -0.7260     1.1150 ca         1 1W7      -0.110000
      9 C11         -6.0130    -1.5510     0.0130 ca         1 1W7      -0.061300
     10 C12          5.3250    -0.2210     1.8360 c6         1 1W7      -0.159400
     11 C13          5.6790    -0.9780     0.5520 c          1 1W7       0.569000
     12 C15         -1.9890    -0.0020     0.5890 c3         1 1W7      -0.272100
     13 C16         -3.3990    -0.5440     0.3870 ca         1 1W7      -0.088300
     14 C17         -3.6910    -1.3680    -0.7160 ca         1 1W7      -0.082000
     15 C18         -4.4200    -0.2260     1.3020 ca         1 1W7      -0.082000
     16 C19         -4.9910    -1.8670    -0.9030 ca         1 1W7      -0.110000
     17 N1          -0.1050     1.9690     0.1720 nu         1 1W7      -0.874100
     18 N2           4.7290    -0.9450    -0.4990 n          1 1W7      -0.221400
     19 O1          -1.7410     1.4430    -1.6570 o          1 1W7      -0.518000
     20 O2           6.7540    -1.5580     0.4550 o          1 1W7      -0.534000
     21 O3          -2.4790     2.6200     0.4720 o          1 1W7      -0.518000
     22 S1          -1.6850     1.5900    -0.2000 s6         1 1W7       1.167100
     23 H1           2.4160    -1.2780    -1.9200 ha         1 1W7       0.130000
     24 H2           0.3330    -0.0350    -1.6450 ha         1 1W7       0.145000
     25 H3           2.1030     2.2740     1.5430 ha         1 1W7       0.112000
     26 H4           6.1330    -1.6970    -1.9260 h1         1 1W7       0.051700
     27 H5           4.6430    -2.6660    -1.7350 h1         1 1W7       0.051700
     28 H6           4.6120    -1.1090    -2.6170 h1         1 1W7       0.051700
     29 H7           5.2390     1.8150     1.0730 hc         1 1W7       0.061200
     30 H8           4.2180     1.5340     2.4830 hc         1 1W7       0.061200
     31 H9          -6.5010    -0.4710     1.8280 ha         1 1W7       0.115000
     32 H10          6.2150    -0.0780     2.4620 hc         1 1W7       0.079200
     33 H11          4.6210    -0.8660     2.3790 hc         1 1W7       0.079200
     34 H12         -1.7810     0.1440     1.6540 h1         1 1W7       0.093700
     35 H13         -1.2500    -0.6960     0.1780 h1         1 1W7       0.093700
     36 H14         -2.9110    -1.6200    -1.4310 ha         1 1W7       0.119000
     37 H15         -4.2070     0.4100     2.1580 ha         1 1W7       0.119000
     38 H16         -5.2040    -2.5010    -1.7610 ha         1 1W7       0.115000
     39 H17         -0.1450     2.5960     0.9650 hn         1 1W7       0.487000
     40 H18         -7.9370    -2.2310     0.7650 hc         1 1W7       0.044367
     41 H19         -8.0190    -1.3980    -0.7960 hc         1 1W7       0.044367
     42 H20         -7.4080    -3.0580    -0.7040 hc         1 1W7       0.044367
     43 C8           5.0490    -1.6470    -1.7670 c3         1 1W7       0.078300
     44 C20         -7.4210    -2.0890    -0.1910 c3         1 1W7      -0.049800
@<TRIPOS>BOND
     1     1     2 ar  
     2     1     3 ar  
     3     1    18 1   
     4     2     6 ar  
     5     2     7 1   
     6     3     4 ar  
     7     3    23 1   
     8     4     5 ar  
     9     4    24 1   
    10     5     6 ar  
    11     5    17 1   
    12     6    25 1   
    13     7    10 1   
    14     7    29 1   
    15     7    30 1   
    16     8     9 ar  
    17     8    15 ar  
    18     8    31 1   
    19     9    16 ar  
    20     9    44 1   
    21    10    11 1   
    22    10    32 1   
    23    10    33 1   
    24    11    18 1   
    25    11    20 2   
    26    12    13 1   
    27    12    22 1   
    28    12    34 1   
    29    12    35 1   
    30    13    14 ar  
    31    13    15 ar  
    32    14    16 ar  
    33    14    36 1   
    34    15    37 1   
    35    16    38 1   
    36    17    22 1   
    37    17    39 1   
    38    18    43 1   
    39    19    22 2   
    40    21    22 2   
    41    26    43 1   
    42    27    43 1   
    43    28    43 1   
    44    40    44 1   
    45    41    44 1   
    46    42    44 1   
@<TRIPOS>SUBSTRUCTURE
     1 1W7         1 TEMP              0 ****  ****    0 ROOT
