@<TRIPOS>MOLECULE
1W7
   44    46     1     0     0
SMALL
abcg2


@<TRIPOS>ATOM
      1 C1           3.4170    -0.0470    -0.5970 ca         1 1W7      -0.008000
      2 C2           2.9150     0.4430     0.6140 ca         1 1W7      -0.112300
      3 C3           2.7340     0.2260    -1.7800 ca         1 1W7      -0.142000
      4 C4           1.5710     0.9800    -1.7650 ca         1 1W7      -0.045000
      5 C5           1.0610     1.4510    -0.5640 ca         1 1W7       0.207000
      6 C7           1.7380     1.1700     0.6190 ca         1 1W7      -0.108000
      7 C9           3.6810     0.1350     1.8610 c6         1 1W7      -0.025100
      8 C10         -5.5400    -0.3050     1.0040 ca         1 1W7      -0.110000
      9 C11         -5.5940    -1.5950     0.4810 ca         1 1W7      -0.061300
     10 C12          4.2340    -1.2750     1.7570 c6         1 1W7      -0.159400
     11 C13          5.0460    -1.4680     0.5020 c          1 1W7       0.569000
     12 C15         -1.8540     0.5200     0.7780 c3         1 1W7      -0.272100
     13 C16         -3.1510    -0.2180     0.6910 ca         1 1W7      -0.088300
     14 C17         -3.1970    -1.5040     0.1580 ca         1 1W7      -0.082000
     15 C18         -4.3370     0.3780     1.1060 ca         1 1W7      -0.082000
     16 C19         -4.4010    -2.1820     0.0590 ca         1 1W7      -0.110000
     17 N1          -0.1260     2.2290    -0.5550 nu         1 1W7      -0.874100
     18 N2           4.6130    -0.7840    -0.6030 n          1 1W7      -0.221400
     19 O1          -1.4900     0.5530    -1.8400 o          1 1W7      -0.518000
     20 O2           6.0170    -2.2010     0.4620 o          1 1W7      -0.534000
     21 O3          -2.5910     2.5400    -0.7660 o          1 1W7      -0.518000
     22 S1          -1.5990     1.4780    -0.7260 s6         1 1W7       1.167100
     23 H1           3.0960    -0.1400    -2.7300 ha         1 1W7       0.130000
     24 H2           1.0680     1.2010    -2.6950 ha         1 1W7       0.145000
     25 H3           1.3470     1.5320     1.5640 ha         1 1W7       0.112000
     26 H4           6.3480    -1.2560    -1.6540 h1         1 1W7       0.051700
     27 H5           4.8610    -1.6940    -2.4980 h1         1 1W7       0.051700
     28 H6           5.3570     0.0030    -2.3880 h1         1 1W7       0.051700
     29 H7           4.5010     0.8510     1.9790 hc         1 1W7       0.061200
     30 H8           3.0460     0.2340     2.7410 hc         1 1W7       0.061200
     31 H9          -6.4540     0.1760     1.3340 ha         1 1W7       0.115000
     32 H10          4.8620    -1.5280     2.6100 hc         1 1W7       0.079200
     33 H11          3.4090    -1.9960     1.7360 hc         1 1W7       0.079200
     34 H12         -1.8280     1.2290     1.6070 h1         1 1W7       0.093700
     35 H13         -1.0030    -0.1570     0.8710 h1         1 1W7       0.093700
     36 H14         -2.2840    -1.9820    -0.1730 ha         1 1W7       0.119000
     37 H15         -4.3240     1.3780     1.5200 ha         1 1W7       0.119000
     38 H16         -4.4150    -3.1830    -0.3550 ha         1 1W7       0.115000
     39 H17         -0.1580     2.9610     0.1480 hn         1 1W7       0.487000
     40 H18         -6.9760    -3.0680     1.2080 hc         1 1W7       0.044367
     41 H19         -7.7470    -1.6790     0.4540 hc         1 1W7       0.044367
     42 H20         -6.9600    -2.9070    -0.5400 hc         1 1W7       0.044367
     43 C8           5.3290    -0.9460    -1.8560 c3         1 1W7       0.078300
     44 C20         -6.8890    -2.3470     0.3930 c3         1 1W7      -0.049800
@<TRIPOS>BOND
     1     1     2 ar  
     2     1     3 ar  
     3     1    18 1   
     4     2     6 ar  
     5     2     7 1   
     6     3     4 ar  
     7     3    23 1   
     8     4     5 ar  
     9     4    24 1   
    10     5     6 ar  
    11     5    17 1   
    12     6    25 1   
    13     7    10 1   
    14     7    29 1   
    15     7    30 1   
    16     8     9 ar  
    17     8    15 ar  
    18     8    31 1   
    19     9    16 ar  
    20     9    44 1   
    21    10    11 1   
    22    10    32 1   
    23    10    33 1   
    24    11    18 1   
    25    11    20 2   
    26    12    13 1   
    27    12    22 1   
    28    12    34 1   
    29    12    35 1   
    30    13    14 ar  
    31    13    15 ar  
    32    14    16 ar  
    33    14    36 1   
    34    15    37 1   
    35    16    38 1   
    36    17    22 1   
    37    17    39 1   
    38    18    43 1   
    39    19    22 2   
    40    21    22 2   
    41    26    43 1   
    42    27    43 1   
    43    28    43 1   
    44    40    44 1   
    45    41    44 1   
    46    42    44 1   
@<TRIPOS>SUBSTRUCTURE
     1 1W7         1 TEMP              0 ****  ****    0 ROOT
