@<TRIPOS>MOLECULE
1WB
   20    20     1     0     0
SMALL
abcg2


@<TRIPOS>ATOM
      1 C1          -1.3730     0.0510    -0.0080 ca         1 1WB      -0.146600
      2 CO1         -0.4020     1.0520     0.0150 ca         1 1WB      -0.080000
      3 CO2         -0.9730    -1.2770    -0.0240 ca         1 1WB      -0.153000
      4 CM1          0.9490     0.7340     0.0200 ca         1 1WB      -0.146600
      5 CM2          0.3810    -1.6100    -0.0170 ca         1 1WB       0.040100
      6 OM           0.6670    -2.9340    -0.0330 os         1 1WB      -0.372100
      7 CZ           1.3410    -0.6050     0.0030 ca         1 1WB      -0.153000
      8 CC          -2.8560     0.4040    -0.0130 c          1 1WB       0.714600
      9 CV           2.0220    -3.3250    -0.0240 c3         1 1WB       0.165900
     10 O1          -3.1430     1.6170     0.0140 o          1 1WB      -0.746750
     11 O2          -3.6610    -0.5480    -0.0440 o          1 1WB      -0.746750
     12 CCC          2.0090     1.8310     0.0440 c          1 1WB       0.714600
     13 O11          3.2000     1.4610     0.0370 o          1 1WB      -0.746750
     14 O22          1.5980     3.0070     0.0700 o          1 1WB      -0.746750
     15 H1          -0.7070     2.0880     0.0290 ha         1 1WB       0.143000
     16 H2          -1.7160    -2.0650    -0.0410 ha         1 1WB       0.110500
     17 H3           2.3990    -0.8300     0.0070 ha         1 1WB       0.110500
     18 H4           2.0330    -4.4130    -0.0340 h1         1 1WB       0.013367
     19 H5           2.5610    -2.9630    -0.9040 h1         1 1WB       0.013367
     20 H6           2.5450    -2.9780     0.8720 h1         1 1WB       0.013367
@<TRIPOS>BOND
     1     1     2 ar  
     2     1     3 ar  
     3     1     8 1   
     4     2     4 ar  
     5     2    15 1   
     6     3     5 ar  
     7     3    16 1   
     8     4     7 ar  
     9     4    12 1   
    10     5     6 1   
    11     5     7 ar  
    12     6     9 1   
    13     7    17 1   
    14     8    10 1   
    15     8    11 1   
    16     9    18 1   
    17     9    19 1   
    18     9    20 1   
    19    12    13 1   
    20    12    14 1   
@<TRIPOS>SUBSTRUCTURE
     1 1WB         1 TEMP              0 ****  ****    0 ROOT
