@<TRIPOS>MOLECULE
1WB
   20    20     1     0     0
SMALL
No Charge or Current Charge


@<TRIPOS>ATOM
      1 C1          -1.4100     0.0710    -0.0070 ca         1 1WB      -0.146600
      2 CO1         -0.4190     1.0820     0.0150 ca         1 1WB      -0.080000
      3 CO2         -0.9910    -1.2800    -0.0220 ca         1 1WB      -0.153000
      4 CM1          0.9610     0.7680     0.0220 ca         1 1WB      -0.146600
      5 CM2          0.3710    -1.6160    -0.0160 ca         1 1WB       0.040100
      6 OM           0.7010    -2.9570    -0.0320 os         1 1WB      -0.372100
      7 CZ           1.3450    -0.5950     0.0060 ca         1 1WB      -0.153000
      8 CC          -2.8900     0.4340    -0.0130 c          1 1WB       0.714600
      9 CV           2.0650    -3.4160    -0.0280 c3         1 1WB       0.165900
     10 O1          -3.2060     1.6150    -0.0000 o          1 1WB      -0.746750
     11 O2          -3.7170    -0.4670    -0.0320 o          1 1WB      -0.746750
     12 CCC          2.0070     1.8770     0.0460 c          1 1WB       0.714600
     13 O11          3.1920     1.5710     0.0500 o          1 1WB      -0.746750
     14 O22          1.6300     3.0400     0.0590 o          1 1WB      -0.746750
     15 H1          -0.7260     2.1250     0.0270 ha         1 1WB       0.143000
     16 H2          -1.7270    -2.0800    -0.0390 ha         1 1WB       0.110500
     17 H3           2.4020    -0.8450     0.0110 ha         1 1WB       0.110500
     18 H4           2.0950    -4.5120    -0.0420 h1         1 1WB       0.013367
     19 H5           2.6020    -3.0470    -0.9110 h1         1 1WB       0.013367
     20 H6           2.5880    -3.0720     0.8740 h1         1 1WB       0.013367
@<TRIPOS>BOND
     1     1     2 ar  
     2     1     3 ar  
     3     1     8 1   
     4     2     4 ar  
     5     2    15 1   
     6     3     5 ar  
     7     3    16 1   
     8     4     7 ar  
     9     4    12 1   
    10     5     6 1   
    11     5     7 ar  
    12     6     9 1   
    13     7    17 1   
    14     8    10 1   
    15     8    11 1   
    16     9    18 1   
    17     9    19 1   
    18     9    20 1   
    19    12    13 1   
    20    12    14 1   
@<TRIPOS>SUBSTRUCTURE
     1 1WB         1 TEMP              0 ****  ****    0 ROOT
