@<TRIPOS>MOLECULE
1WC
   22    23     1     0     0
SMALL
No Charge or Current Charge


@<TRIPOS>ATOM
      1 C1          -1.6340     1.1890    -1.8330 c3         1 1WC      -0.034800
      2 C2          -1.8190     0.1580    -0.7480 cc         1 1WC      -0.105300
      3 C6          -1.7060    -1.5240     0.7140 cd         1 1WC       0.260900
      4 C7          -0.9250    -0.6460    -0.0780 cd         1 1WC      -0.172000
      5 C8           0.5550    -0.5980    -0.0440 ca         1 1WC       0.019000
      6 C10          2.6420    -1.8870     0.0320 ca         1 1WC      -0.110000
      7 C11          3.3910    -0.7030    -0.0040 ca         1 1WC      -0.104000
      8 C12          2.7310     0.5350    -0.0250 ca         1 1WC      -0.106000
      9 C13          1.3250     0.5980    -0.0380 ca         1 1WC       0.126000
     10 N3          -3.0660    -0.3050    -0.3340 na         1 1WC      -0.005200
     11 N5          -3.0050    -1.3450     0.5770 nc         1 1WC      -0.520800
     12 C9           1.2390    -1.8320     0.0240 ca         1 1WC      -0.096000
     13 Cl1          0.6070     2.2000     0.1410 cl         1 1WC      -0.207000
     14 H16         -2.3430     1.0210    -2.6530 hc         1 1WC       0.054700
     15 H17         -1.8050     2.2020    -1.4510 hc         1 1WC       0.054700
     16 H15         -0.6270     1.1430    -2.2620 hc         1 1WC       0.054700
     17 H18         -1.3530    -2.2830     1.4020 h4         1 1WC       0.039100
     18 H20          3.1490    -2.8490     0.0640 ha         1 1WC       0.117000
     19 H21          4.4780    -0.7420     0.0080 ha         1 1WC       0.117000
     20 H22          3.3110     1.4540    -0.0070 ha         1 1WC       0.128000
     21 H4          -3.9650     0.0540    -0.6550 hn         1 1WC       0.369000
     22 H19          0.6780    -2.7640     0.0370 ha         1 1WC       0.121000
@<TRIPOS>BOND
     1     1     2 1   
     2     1    14 1   
     3     1    15 1   
     4     1    16 1   
     5     2     4 2   
     6     2    10 1   
     7     3     4 1   
     8     3    11 2   
     9     3    17 1   
    10     4     5 1   
    11     5     9 ar  
    12     5    12 ar  
    13     6     7 ar  
    14     6    12 ar  
    15     6    18 1   
    16     7     8 ar  
    17     7    19 1   
    18     8     9 ar  
    19     8    20 1   
    20     9    13 1   
    21    10    11 1   
    22    10    21 1   
    23    12    22 1   
@<TRIPOS>SUBSTRUCTURE
     1 1WC         1 TEMP              0 ****  ****    0 ROOT
