@<TRIPOS>MOLECULE
1WC
   22    23     1     0     0
SMALL
abcg2


@<TRIPOS>ATOM
      1 C1          -1.5880     0.9840    -1.9280 c3         1 1WC      -0.034800
      2 C2          -1.8020     0.0960    -0.7550 cc         1 1WC      -0.105300
      3 C6          -1.7330    -1.2910     0.9620 cd         1 1WC       0.260900
      4 C7          -0.9120    -0.5600     0.0780 cd         1 1WC      -0.172000
      5 C8           0.5520    -0.5780     0.0180 ca         1 1WC       0.019000
      6 C10          2.6030    -1.8540    -0.2470 ca         1 1WC      -0.110000
      7 C11          3.3570    -0.7010    -0.0810 ca         1 1WC      -0.104000
      8 C12          2.7250     0.5120     0.1430 ca         1 1WC      -0.106000
      9 C13          1.3390     0.5600     0.1980 ca         1 1WC       0.126000
     10 N3          -3.0250    -0.2610    -0.3260 na         1 1WC      -0.005200
     11 N5          -3.0100    -1.0920     0.7130 nc         1 1WC      -0.520800
     12 C9           1.2200    -1.7860    -0.2020 ca         1 1WC      -0.096000
     13 CL1          0.5870     2.0880     0.5340 cl         1 1WC      -0.207000
     14 H16         -1.9360     0.5090    -2.8460 hc         1 1WC       0.054700
     15 H17         -2.1230     1.9280    -1.8170 hc         1 1WC       0.054700
     16 H15         -0.5320     1.2070    -2.0510 hc         1 1WC       0.054700
     17 H18         -1.4230    -1.9350     1.7720 h4         1 1WC       0.039100
     18 H20          3.0910    -2.8030    -0.4260 ha         1 1WC       0.117000
     19 H21          4.4380    -0.7390    -0.1210 ha         1 1WC       0.117000
     20 H22          3.3060     1.4130     0.2870 ha         1 1WC       0.128000
     21 H4          -3.9080     0.0620    -0.6890 hn         1 1WC       0.369000
     22 H19          0.6310    -2.6820    -0.3490 ha         1 1WC       0.121000
@<TRIPOS>BOND
     1     1     2 1   
     2     1    14 1   
     3     1    15 1   
     4     1    16 1   
     5     2     4 2   
     6     2    10 1   
     7     3     4 1   
     8     3    11 2   
     9     3    17 1   
    10     4     5 1   
    11     5     9 ar  
    12     5    12 ar  
    13     6     7 ar  
    14     6    12 ar  
    15     6    18 1   
    16     7     8 ar  
    17     7    19 1   
    18     8     9 ar  
    19     8    20 1   
    20     9    13 1   
    21    10    11 1   
    22    10    21 1   
    23    12    22 1   
@<TRIPOS>SUBSTRUCTURE
     1 1WC         1 TEMP              0 ****  ****    0 ROOT
