@<TRIPOS>MOLECULE
1WD
   14    14     1     0     0
SMALL
No Charge or Current Charge


@<TRIPOS>ATOM
      1 O10         -1.9140    -1.7890    -0.0870 o          1 1WD      -0.635300
      2 C8          -1.3950    -0.6720    -0.1360 c2         1 1WD       0.745400
      3 O9          -2.2320     0.3580    -0.2400 oh         1 1WD      -0.685100
      4 C3          -0.0260    -0.4300    -0.0910 cc         1 1WD      -0.060600
      5 N4           0.7730    -1.5820     0.0190 nc         1 1WD      -0.517300
      6 C5           2.0940    -1.4100     0.0660 cd         1 1WD       0.353500
      7 C6           2.7320    -0.1290     0.0110 cd         1 1WD      -0.301600
      8 C1           1.9480     0.9980    -0.0960 cc         1 1WD      -0.219200
      9 C2           0.5190     0.9280    -0.1550 cs         1 1WD       0.299800
     10 S7          -0.3580     2.3590    -0.2860 s          1 1WD      -0.874400
     11 H2           2.6580    -2.3300     0.1500 h4         1 1WD       0.000800
     12 H3           3.8140    -0.0600     0.0540 ha         1 1WD       0.160000
     13 H4           2.3900     1.9890    -0.1410 ha         1 1WD       0.184000
     14 H5          -1.6120     1.1420    -0.2630 ho         1 1WD       0.550000
@<TRIPOS>BOND
     1     1     2 1   
     2     2     3 1   
     3     2     4 2   
     4     3    14 1   
     5     4     5 1   
     6     4     9 1   
     7     5     6 2   
     8     6     7 1   
     9     6    11 1   
    10     7     8 2   
    11     7    12 1   
    12     8     9 1   
    13     8    13 1   
    14     9    10 2   
@<TRIPOS>SUBSTRUCTURE
     1 1WD         1 TEMP              0 ****  ****    0 ROOT
