@<TRIPOS>MOLECULE
1WD
   14    14     1     0     0
SMALL
abcg2


@<TRIPOS>ATOM
      1 O10         -1.8670    -1.8210    -0.1700 o          1 1WD      -0.635300
      2 C8          -1.4430    -0.6970    -0.1580 c2         1 1WD       0.745400
      3 O9          -2.2350     0.3230    -0.1990 oh         1 1WD      -0.685100
      4 C3           0.0210    -0.4050    -0.1010 cc         1 1WD      -0.060600
      5 N4           0.7710    -1.4980     0.0340 nc         1 1WD      -0.517300
      6 C5           2.0800    -1.3890     0.0930 cd         1 1WD       0.353500
      7 C6           2.7260    -0.1500     0.0230 cd         1 1WD      -0.301600
      8 C1           1.9600     0.9800    -0.1040 cc         1 1WD      -0.219200
      9 C2           0.5540     0.9060    -0.1610 cs         1 1WD       0.299800
     10 S7          -0.3550     2.3730    -0.2890 s          1 1WD      -0.874400
     11 H2           2.6550    -2.3070     0.1850 h4         1 1WD       0.000800
     12 H3           3.8070    -0.0900     0.0340 ha         1 1WD       0.160000
     13 H4           2.4250     1.9550    -0.1770 ha         1 1WD       0.184000
     14 H5          -1.7080     1.1930    -0.2050 ho         1 1WD       0.550000
@<TRIPOS>BOND
     1     1     2 1   
     2     2     3 1   
     3     2     4 2   
     4     3    14 1   
     5     4     5 1   
     6     4     9 1   
     7     5     6 2   
     8     6     7 1   
     9     6    11 1   
    10     7     8 2   
    11     7    12 1   
    12     8     9 1   
    13     8    13 1   
    14     9    10 2   
@<TRIPOS>SUBSTRUCTURE
     1 1WD         1 TEMP              0 ****  ****    0 ROOT
