@<TRIPOS>MOLECULE
1WE
   23    23     1     0     0
SMALL
No Charge or Current Charge


@<TRIPOS>ATOM
      1 N            2.0700     1.0640    -0.9860 n8         1 1WE      -0.983200
      2 CA           2.0820    -0.2520    -0.3200 c3         1 1WE       0.157500
      3 C            3.5240    -0.5880     0.1060 c3         1 1WE      -0.132100
      4 CB           1.0910    -0.3000     0.8740 c3         1 1WE      -0.024100
      5 CG          -0.3720    -0.1290     0.4690 ca         1 1WE      -0.063300
      6 CD1         -1.0810     1.0390     0.8170 ca         1 1WE      -0.099000
      7 CD2         -1.0340    -1.1510    -0.2400 ca         1 1WE      -0.099000
      8 CE1         -2.4310     1.1860     0.4530 ca         1 1WE      -0.111500
      9 CE2         -2.3850    -1.0040    -0.6040 ca         1 1WE      -0.111500
     10 CZ          -3.0830     0.1640    -0.2580 ca         1 1WE      -0.112000
     11 H1           2.3780     1.7760    -0.3160 hn         1 1WE       0.388500
     12 H2           2.8010     1.0780    -1.7060 hn         1 1WE       0.388500
     13 H4           1.7670    -1.0070    -1.0560 h1         1 1WE       0.063700
     14 H5           4.2000    -0.5760    -0.7570 hc         1 1WE       0.036367
     15 H6           3.8950     0.1310     0.8480 hc         1 1WE       0.036367
     16 H7           3.5680    -1.5890     0.5510 hc         1 1WE       0.036367
     17 H8           1.2060    -1.2640     1.3840 hc         1 1WE       0.044200
     18 H9           1.3770     0.4610     1.6110 hc         1 1WE       0.044200
     19 H10         -0.5850     1.8360     1.3670 ha         1 1WE       0.107000
     20 H11         -0.5030    -2.0610    -0.5090 ha         1 1WE       0.107000
     21 H12         -2.9710     2.0910     0.7220 ha         1 1WE       0.109000
     22 H13         -2.8890    -1.7970    -1.1520 ha         1 1WE       0.109000
     23 H14         -4.1280     0.2780    -0.5390 ha         1 1WE       0.109000
@<TRIPOS>BOND
     1     1     2 1   
     2     1    11 1   
     3     1    12 1   
     4     2     3 1   
     5     2     4 1   
     6     2    13 1   
     7     3    14 1   
     8     3    15 1   
     9     3    16 1   
    10     4     5 1   
    11     4    17 1   
    12     4    18 1   
    13     5     6 ar  
    14     5     7 ar  
    15     6     8 ar  
    16     6    19 1   
    17     7     9 ar  
    18     7    20 1   
    19     8    10 ar  
    20     8    21 1   
    21     9    10 ar  
    22     9    22 1   
    23    10    23 1   
@<TRIPOS>SUBSTRUCTURE
     1 1WE         1 TEMP              0 ****  ****    0 ROOT
