@<TRIPOS>MOLECULE
1WE
   23    23     1     0     0
SMALL
abcg2


@<TRIPOS>ATOM
      1 N            1.9620     1.1850    -0.8120 n8         1 1WE      -0.983200
      2 CA           2.0680    -0.1840    -0.3290 c3         1 1WE       0.157500
      3 C            3.4830    -0.5870     0.0780 c3         1 1WE      -0.132100
      4 CB           1.0990    -0.3940     0.8400 c3         1 1WE      -0.024100
      5 CG          -0.3410    -0.1910     0.4660 ca         1 1WE      -0.063300
      6 CD1         -0.9750     1.0350     0.6590 ca         1 1WE      -0.099000
      7 CD2         -1.0720    -1.2290    -0.1080 ca         1 1WE      -0.099000
      8 CE1         -2.3020     1.2180     0.2940 ca         1 1WE      -0.111500
      9 CE2         -2.3980    -1.0500    -0.4810 ca         1 1WE      -0.111500
     10 CZ          -3.0190     0.1760    -0.2800 ca         1 1WE      -0.112000
     11 H1           2.2720     1.8190    -0.0830 hn         1 1WE       0.388500
     12 H2           2.6090     1.3200    -1.5800 hn         1 1WE       0.388500
     13 H4           1.7480    -0.8390    -1.1470 h1         1 1WE       0.063700
     14 H5           4.1790    -0.4490    -0.7510 hc         1 1WE       0.036367
     15 H6           3.8340     0.0230     0.9140 hc         1 1WE       0.036367
     16 H7           3.5340    -1.6340     0.3840 hc         1 1WE       0.036367
     17 H8           1.2390    -1.4070     1.2250 hc         1 1WE       0.044200
     18 H9           1.3770     0.2870     1.6520 hc         1 1WE       0.044200
     19 H10         -0.4250     1.8530     1.1090 ha         1 1WE       0.107000
     20 H11         -0.5980    -2.1920    -0.2630 ha         1 1WE       0.107000
     21 H12         -2.7770     2.1780     0.4580 ha         1 1WE       0.109000
     22 H13         -2.9480    -1.8720    -0.9230 ha         1 1WE       0.109000
     23 H14         -4.0540     0.3180    -0.5640 ha         1 1WE       0.109000
@<TRIPOS>BOND
     1     1     2 1   
     2     1    11 1   
     3     1    12 1   
     4     2     3 1   
     5     2     4 1   
     6     2    13 1   
     7     3    14 1   
     8     3    15 1   
     9     3    16 1   
    10     4     5 1   
    11     4    17 1   
    12     4    18 1   
    13     5     6 ar  
    14     5     7 ar  
    15     6     8 ar  
    16     6    19 1   
    17     7     9 ar  
    18     7    20 1   
    19     8    10 ar  
    20     8    21 1   
    21     9    10 ar  
    22     9    22 1   
    23    10    23 1   
@<TRIPOS>SUBSTRUCTURE
     1 1WE         1 TEMP              0 ****  ****    0 ROOT
