@<TRIPOS>MOLECULE
1WF
   27    27     1     0     0
SMALL
No Charge or Current Charge


@<TRIPOS>ATOM
      1 C            3.7130     0.9390     0.0030 c3         1 1WF      -0.129100
      2 OH          -4.1390    -0.4210     0.4850 oh         1 1WF      -0.537100
      3 CZ          -2.8520    -0.0810     0.1960 ca         1 1WF       0.134100
      4 CE1         -2.2210    -0.6000    -0.9470 ca         1 1WF      -0.175500
      5 CD1         -0.8920    -0.2440    -1.2390 ca         1 1WF      -0.060500
      6 CE2         -2.1560     0.7920     1.0450 ca         1 1WF      -0.175500
      7 CD2         -0.8280     1.1490     0.7550 ca         1 1WF      -0.060500
      8 CG          -0.1870     0.6320    -0.3890 ca         1 1WF      -0.101300
      9 CB           1.2540     1.0270    -0.7050 c3         1 1WF      -0.018100
     10 CA           2.2990     0.3550     0.2240 c3         1 1WF       0.173500
     11 N            2.3170    -1.1070    -0.0080 n7         1 1WF      -0.863400
     12 C10          2.9690    -1.9380     1.0250 c3         1 1WF       0.151100
     13 H1           4.4310     0.5240     0.7190 hc         1 1WF       0.036700
     14 H2           4.0720     0.7290    -1.0120 hc         1 1WF       0.036700
     15 H3           3.7030     2.0260     0.1420 hc         1 1WF       0.036700
     16 H4          -4.4610    -1.0330    -0.2110 ho         1 1WF       0.462000
     17 H6          -0.4090    -0.6530    -2.1240 ha         1 1WF       0.109500
     18 H7          -2.6450     1.1950     1.9280 ha         1 1WF       0.117500
     19 H8          -0.2960     1.8290     1.4180 ha         1 1WF       0.109500
     20 H9           1.4970     0.7980    -1.7510 hc         1 1WF       0.043700
     21 H10          1.3490     2.1160    -0.6100 hc         1 1WF       0.043700
     22 H11          2.0020     0.5690     1.2610 h1         1 1WF       0.061700
     23 H12          2.7640    -1.2890    -0.9140 hn         1 1WF       0.405000
     24 H14          2.8550    -3.0040     0.7870 h1         1 1WF       0.027700
     25 H15          4.0430    -1.7220     1.0930 h1         1 1WF       0.027700
     26 H16          2.5180    -1.7610     2.0110 h1         1 1WF       0.027700
     27 H5          -2.7520    -1.2780    -1.6110 ha         1 1WF       0.117500
@<TRIPOS>BOND
     1     1    10 1   
     2     1    13 1   
     3     1    14 1   
     4     1    15 1   
     5     2     3 1   
     6     2    16 1   
     7     3     4 ar  
     8     3     6 ar  
     9     4     5 ar  
    10     4    27 1   
    11     5     8 ar  
    12     5    17 1   
    13     6     7 ar  
    14     6    18 1   
    15     7     8 ar  
    16     7    19 1   
    17     8     9 1   
    18     9    10 1   
    19     9    20 1   
    20     9    21 1   
    21    10    11 1   
    22    10    22 1   
    23    11    12 1   
    24    11    23 1   
    25    12    24 1   
    26    12    25 1   
    27    12    26 1   
@<TRIPOS>SUBSTRUCTURE
     1 1WF         1 TEMP              0 ****  ****    0 ROOT
