@<TRIPOS>MOLECULE
1WF
   27    27     1     0     0
SMALL
abcg2


@<TRIPOS>ATOM
      1 C            3.6770     0.9270     0.0750 c3         1 1WF      -0.129100
      2 OH          -4.0910    -0.3950     0.4730 oh         1 1WF      -0.537100
      3 CZ          -2.8110    -0.0770     0.1770 ca         1 1WF       0.134100
      4 CE1         -2.0900    -0.7130    -0.8300 ca         1 1WF      -0.175500
      5 CD1         -0.7780    -0.3390    -1.0860 ca         1 1WF      -0.060500
      6 CE2         -2.2020     0.9340     0.9160 ca         1 1WF      -0.175500
      7 CD2         -0.8930     1.2960     0.6400 ca         1 1WF      -0.060500
      8 CG          -0.1530     0.6720    -0.3630 ca         1 1WF      -0.101300
      9 CB           1.2720     1.0670    -0.6220 c3         1 1WF      -0.018100
     10 CA           2.2870     0.3120     0.2460 c3         1 1WF       0.173500
     11 N            2.2150    -1.1070    -0.0500 n7         1 1WF      -0.863400
     12 C10          2.9520    -1.9590     0.8590 c3         1 1WF       0.151100
     13 H1           4.4260     0.4150     0.6810 hc         1 1WF       0.036700
     14 H2           3.9990     0.8710    -0.9680 hc         1 1WF       0.036700
     15 H3           3.6830     1.9770     0.3700 hc         1 1WF       0.036700
     16 H4          -4.4000    -1.1010    -0.1050 ho         1 1WF       0.462000
     17 H6          -0.2350    -0.8440    -1.8750 ha         1 1WF       0.109500
     18 H7          -2.7580     1.4370     1.6980 ha         1 1WF       0.117500
     19 H8          -0.4380     2.0910     1.2220 ha         1 1WF       0.109500
     20 H9           1.5230     0.9040    -1.6760 hc         1 1WF       0.043700
     21 H10          1.3930     2.1380    -0.4410 hc         1 1WF       0.043700
     22 H11          1.9850     0.4330     1.2940 h1         1 1WF       0.061700
     23 H12          2.5320    -1.2680    -0.9990 hn         1 1WF       0.405000
     24 H14          2.8200    -3.0020     0.5680 h1         1 1WF       0.027700
     25 H15          4.0320    -1.7680     0.9160 h1         1 1WF       0.027700
     26 H16          2.5500    -1.8520     1.8690 h1         1 1WF       0.027700
     27 H5          -2.5510    -1.5000    -1.4170 ha         1 1WF       0.117500
@<TRIPOS>BOND
     1     1    10 1   
     2     1    13 1   
     3     1    14 1   
     4     1    15 1   
     5     2     3 1   
     6     2    16 1   
     7     3     4 ar  
     8     3     6 ar  
     9     4     5 ar  
    10     4    27 1   
    11     5     8 ar  
    12     5    17 1   
    13     6     7 ar  
    14     6    18 1   
    15     7     8 ar  
    16     7    19 1   
    17     8     9 1   
    18     9    10 1   
    19     9    20 1   
    20     9    21 1   
    21    10    11 1   
    22    10    22 1   
    23    11    12 1   
    24    11    23 1   
    25    12    24 1   
    26    12    25 1   
    27    12    26 1   
@<TRIPOS>SUBSTRUCTURE
     1 1WF         1 TEMP              0 ****  ****    0 ROOT
