@<TRIPOS>MOLECULE
1WG
   14    14     1     0     0
SMALL
No Charge or Current Charge


@<TRIPOS>ATOM
      1 O01         -2.0890    -1.7130     0.0280 o          1 1WG      -0.474100
      2 C02         -1.1440    -0.9320     0.0230 c          1 1WG       0.586500
      3 C03         -1.2940     0.5700     0.0200 cc         1 1WG       0.104900
      4 O04         -2.5640     1.0430     0.0230 oh         1 1WG      -0.481600
      5 C05         -0.2060     1.4190     0.0140 cd         1 1WG      -0.422200
      6 C06          1.1810     0.9080     0.0110 c          1 1WG       0.586500
      7 O07          2.1260     1.6890     0.0060 o          1 1WG      -0.474100
      8 C08          1.3300    -0.5940     0.0140 cc         1 1WG       0.104900
      9 O09          2.6000    -1.0670     0.0110 oh         1 1WG      -0.481600
     10 C10          0.2430    -1.4430     0.0200 cd         1 1WG      -0.422200
     11 H1          -2.5100     2.0220     0.0210 ho         1 1WG       0.475500
     12 H2          -0.2940     2.4990     0.0120 ha         1 1WG       0.211500
     13 H3           2.5470    -2.0460     0.0130 ho         1 1WG       0.475500
     14 H4           0.3300    -2.5230     0.0220 ha         1 1WG       0.211500
@<TRIPOS>BOND
     1     1     2 2   
     2     2     3 1   
     3     2    10 1   
     4     3     4 1   
     5     3     5 2   
     6     4    11 1   
     7     5     6 1   
     8     5    12 1   
     9     6     7 2   
    10     6     8 1   
    11     8     9 1   
    12     8    10 2   
    13     9    13 1   
    14    10    14 1   
@<TRIPOS>SUBSTRUCTURE
     1 1WG         1 TEMP              0 ****  ****    0 ROOT
