@<TRIPOS>MOLECULE
1WG
   14    14     1     0     0
SMALL
bcc


@<TRIPOS>ATOM
      1 O01         -2.1140    -1.5890     0.0330 o          1 1WG      -0.474100
      2 C02         -1.1190    -0.8950     0.0260 c          1 1WG       0.586500
      3 C03         -1.2640     0.6050     0.0200 cc         1 1WG       0.104900
      4 O04         -2.5240     0.9910     0.0210 oh         1 1WG      -0.442600
      5 C05         -0.1890     1.4120     0.0140 cd         1 1WG      -0.372200
      6 C06          1.1550     0.8710     0.0140 c          1 1WG       0.586500
      7 O07          2.1500     1.5650     0.0160 o          1 1WG      -0.474100
      8 C08          1.3000    -0.6290     0.0120 cc         1 1WG       0.104900
      9 O09          2.5610    -1.0150     0.0040 oh         1 1WG      -0.442600
     10 C10          0.2250    -1.4360     0.0210 cd         1 1WG      -0.372200
     11 H1          -2.5930     1.9560     0.0140 ho         1 1WG       0.436500
     12 H2          -0.2870     2.4910     0.0110 ha         1 1WG       0.161500
     13 H3           2.6300    -1.9800     0.0070 ho         1 1WG       0.436500
     14 H4           0.3240    -2.5150     0.0240 ha         1 1WG       0.161500
@<TRIPOS>BOND
     1     1     2 2   
     2     2     3 1   
     3     2    10 1   
     4     3     4 1   
     5     3     5 2   
     6     4    11 1   
     7     5     6 1   
     8     5    12 1   
     9     6     7 2   
    10     6     8 1   
    11     8     9 1   
    12     8    10 2   
    13     9    13 1   
    14    10    14 1   
@<TRIPOS>SUBSTRUCTURE
     1 1WG         1 TEMP              0 ****  ****    0 ROOT
