@<TRIPOS>MOLECULE
1WH
   44    46     1     0     0
SMALL
bcc


@<TRIPOS>ATOM
      1 C           -1.6030    -0.6950     0.6340 c          1 1WH       0.739100
      2 C7A         -1.0870     0.6160     0.1890 ca         1 1WH      -0.264900
      3 N            1.8540     3.0540    -2.2980 n8         1 1WH      -0.887800
      4 C1           1.6940     2.9420    -0.8550 c3         1 1WH       0.198100
      5 C2           0.1910     1.0420    -0.1420 cp         1 1WH       0.068000
      6 C3           0.3410     2.3780    -0.5080 ca         1 1WH      -0.191600
      7 C4          -0.6920     4.6400    -0.9550 c3         1 1WH      -0.154400
      8 C5          -0.8050     3.2010    -0.5610 ca         1 1WH       0.466600
      9 N1          -2.0280     2.7670    -0.2550 nb         1 1WH      -0.663000
     10 C3A         -2.1360     1.5050     0.1130 ca         1 1WH       0.417600
     11 C6          -3.4030     0.8140     0.5030 c5         1 1WH       0.045700
     12 N2          -2.9370    -0.5170     0.8240 n          1 1WH      -0.486800
     13 C7          -3.8420    -1.5660     1.2190 c3         1 1WH       0.115000
     14 C8          -4.6220    -2.1490     0.0550 c3         1 1WH       0.110400
     15 O1          -3.7230    -2.6900    -0.8740 os         1 1WH      -0.390600
     16 C10         -4.3630    -3.2190    -2.0060 c3         1 1WH       0.121700
     17 C14          1.3320     0.0970    -0.1400 cp         1 1WH      -0.036000
     18 C15          1.9620    -0.2980     1.0340 ca         1 1WH       0.065400
     19 CL           1.4150     0.3310     2.5470 cl         1 1WH      -0.091400
     20 C16          3.0310    -1.1790     1.0300 ca         1 1WH      -0.114000
     21 C17          3.4690    -1.6810    -0.1850 ca         1 1WH       0.041400
     22 CL1          4.8000    -2.7840    -0.2060 cl         1 1WH      -0.100400
     23 C18          2.8620    -1.3180    -1.3760 ca         1 1WH      -0.123000
     24 C19          1.7980    -0.4310    -1.3380 ca         1 1WH      -0.098000
     25 O2          -0.9740    -1.7200     0.8190 o          1 1WH      -0.595500
     26 H1           2.7200     3.5380    -2.4990 hn         1 1WH       0.341800
     27 H2           1.9530     2.1320    -2.7040 hn         1 1WH       0.341800
     28 H4           2.4710     2.3400    -0.3700 h1         1 1WH       0.042200
     29 H5           1.7850     3.9430    -0.4300 h1         1 1WH       0.042200
     30 H6          -0.0680     4.7580    -1.8400 hc         1 1WH       0.060367
     31 H7          -1.6770     5.0570    -1.1520 hc         1 1WH       0.060367
     32 H8          -0.2330     5.2260    -0.1550 hc         1 1WH       0.060367
     33 H9          -3.8820     1.2900     1.3640 h1         1 1WH       0.069200
     34 H10         -4.1260     0.8100    -0.3190 h1         1 1WH       0.069200
     35 H11         -3.2670    -2.3480     1.7140 h1         1 1WH       0.065700
     36 H12         -4.5500    -1.1720     1.9510 h1         1 1WH       0.065700
     37 H13         -5.3070    -2.9130     0.4480 h1         1 1WH       0.022700
     38 H14         -5.2490    -1.3740    -0.4100 h1         1 1WH       0.022700
     39 H15         -3.5970    -3.6190    -2.6690 h1         1 1WH       0.028367
     40 H16         -5.0550    -4.0310    -1.7490 h1         1 1WH       0.028367
     41 H17         -4.9300    -2.4570    -2.5540 h1         1 1WH       0.028367
     42 H18          3.5120    -1.4660     1.9540 ha         1 1WH       0.164000
     43 H19          3.2060    -1.7180    -2.3190 ha         1 1WH       0.152000
     44 H20          1.3100    -0.1550    -2.2640 ha         1 1WH       0.143000
@<TRIPOS>BOND
     1     1     2 1   
     2     1    12 1   
     3     1    25 2   
     4     2     5 ar  
     5     2    10 ar  
     6     3     4 1   
     7     3    26 1   
     8     3    27 1   
     9     4     6 1   
    10     4    28 1   
    11     4    29 1   
    12     5     6 ar  
    13     5    17 1   
    14     6     8 ar  
    15     7     8 1   
    16     7    30 1   
    17     7    31 1   
    18     7    32 1   
    19     8     9 ar  
    20     9    10 ar  
    21    10    11 1   
    22    11    12 1   
    23    11    33 1   
    24    11    34 1   
    25    12    13 1   
    26    13    14 1   
    27    13    35 1   
    28    13    36 1   
    29    14    15 1   
    30    14    37 1   
    31    14    38 1   
    32    15    16 1   
    33    16    39 1   
    34    16    40 1   
    35    16    41 1   
    36    17    18 ar  
    37    17    24 ar  
    38    18    19 1   
    39    18    20 ar  
    40    20    21 ar  
    41    20    42 1   
    42    21    22 1   
    43    21    23 ar  
    44    23    24 ar  
    45    23    43 1   
    46    24    44 1   
@<TRIPOS>SUBSTRUCTURE
     1 1WH         1 TEMP              0 ****  ****    0 ROOT
