@<TRIPOS>MOLECULE
1WH
   44    46     1     0     0
SMALL
No Charge or Current Charge


@<TRIPOS>ATOM
      1 C           -1.5670    -0.6480     0.5620 c          1 1WH       0.596600
      2 C7A         -1.1180     0.6920     0.1540 ca         1 1WH      -0.199600
      3 N            1.9830     2.9380    -2.3140 n8         1 1WH      -0.998200
      4 C1           1.7240     3.0130    -0.8650 c3         1 1WH       0.198100
      5 C2           0.1970     1.0750    -0.1660 cp         1 1WH       0.068000
      6 C3           0.3510     2.4470    -0.5130 ca         1 1WH      -0.126300
      7 C4          -0.7280     4.7670    -0.8660 c3         1 1WH      -0.154400
      8 C5          -0.8010     3.2890    -0.5120 ca         1 1WH       0.401300
      9 N1          -2.0480     2.8540    -0.1910 nb         1 1WH      -0.663000
     10 C3A         -2.1840     1.5550     0.1370 ca         1 1WH       0.352300
     11 C6          -3.4730     0.8470     0.5370 c5         1 1WH       0.045700
     12 N2          -2.9490    -0.5380     0.7820 n          1 1WH      -0.419800
     13 C7          -3.7750    -1.7010     1.1760 c3         1 1WH       0.115000
     14 C8          -4.6530    -2.2570     0.0310 c3         1 1WH       0.133600
     15 O1          -3.7970    -2.6980    -1.0400 os         1 1WH      -0.437000
     16 C10         -4.4930    -3.2230    -2.1810 c3         1 1WH       0.144900
     17 C14          1.3390     0.1180    -0.1370 cp         1 1WH      -0.036000
     18 C15          2.1180    -0.0580     1.0340 ca         1 1WH       0.157000
     19 Cl           1.7660     0.8580     2.4990 cl         1 1WH      -0.183000
     20 C16          3.1890    -0.9670     1.0510 ca         1 1WH      -0.096000
     21 C17          3.4940    -1.7130    -0.0980 ca         1 1WH       0.133000
     22 Cl1          4.8340    -2.8510    -0.0730 cl         1 1WH      -0.192000
     23 C18          2.7310    -1.5550    -1.2650 ca         1 1WH      -0.105000
     24 C19          1.6590    -0.6450    -1.2840 ca         1 1WH      -0.080000
     25 O2          -0.8890    -1.6560     0.6990 o          1 1WH      -0.520000
     26 H1           2.9360     3.2710    -2.5010 hn         1 1WH       0.397000
     27 H2           2.0120     1.9510    -2.5940 hn         1 1WH       0.397000
     28 H4           2.5110     2.4560    -0.3370 h1         1 1WH       0.042200
     29 H5           1.8040     4.0600    -0.5430 h1         1 1WH       0.042200
     30 H6          -0.2360     4.9160    -1.8330 hc         1 1WH       0.060367
     31 H7          -1.7240     5.2220    -0.9350 hc         1 1WH       0.060367
     32 H8          -0.1660     5.3220    -0.1070 hc         1 1WH       0.060367
     33 H9          -3.9090     1.2880     1.4430 h1         1 1WH       0.069200
     34 H10         -4.2110     0.8700    -0.2750 h1         1 1WH       0.069200
     35 H11         -3.1330    -2.5060     1.5550 h1         1 1WH       0.065700
     36 H12         -4.4310    -1.3950     2.0000 h1         1 1WH       0.065700
     37 H13         -5.2560    -3.0910     0.4120 h1         1 1WH       0.022700
     38 H14         -5.3350    -1.4700    -0.3170 h1         1 1WH       0.022700
     39 H15         -3.7790    -3.5370    -2.9520 h1         1 1WH       0.028367
     40 H16         -5.1000    -4.0940    -1.9010 h1         1 1WH       0.028367
     41 H17         -5.1550    -2.4630    -2.6180 h1         1 1WH       0.028367
     42 H18          3.7800    -1.0930     1.9530 ha         1 1WH       0.146000
     43 H19          2.9690    -2.1370    -2.1520 ha         1 1WH       0.134000
     44 H20          1.0670    -0.5310    -2.1900 ha         1 1WH       0.125000
@<TRIPOS>BOND
     1     1     2 1   
     2     1    12 1   
     3     1    25 2   
     4     2     5 ar  
     5     2    10 ar  
     6     3     4 1   
     7     3    26 1   
     8     3    27 1   
     9     4     6 1   
    10     4    28 1   
    11     4    29 1   
    12     5     6 ar  
    13     5    17 1   
    14     6     8 ar  
    15     7     8 1   
    16     7    30 1   
    17     7    31 1   
    18     7    32 1   
    19     8     9 ar  
    20     9    10 ar  
    21    10    11 1   
    22    11    12 1   
    23    11    33 1   
    24    11    34 1   
    25    12    13 1   
    26    13    14 1   
    27    13    35 1   
    28    13    36 1   
    29    14    15 1   
    30    14    37 1   
    31    14    38 1   
    32    15    16 1   
    33    16    39 1   
    34    16    40 1   
    35    16    41 1   
    36    17    18 ar  
    37    17    24 ar  
    38    18    19 1   
    39    18    20 ar  
    40    20    21 ar  
    41    20    42 1   
    42    21    22 1   
    43    21    23 ar  
    44    23    24 ar  
    45    23    43 1   
    46    24    44 1   
@<TRIPOS>SUBSTRUCTURE
     1 1WH         1 TEMP              0 ****  ****    0 ROOT
