@<TRIPOS>MOLECULE
1WI
   61    64     1     0     0
SMALL
No Charge or Current Charge


@<TRIPOS>ATOM
      1 C10        -21.7290    18.1340   -33.4750 ca         1 1WI      -0.128300
      2 C13        -19.5710    16.3800   -33.0310 ca         1 1WI       0.191000
      3 C15        -20.7760    17.9040   -34.4890 ca         1 1WI      -0.029000
      4 C17        -16.8710    17.8700   -33.9390 c6         1 1WI       0.091000
      5 C20        -16.2740    16.6720   -36.1200 c6         1 1WI       0.011000
      6 C22        -12.3120    18.4520   -33.9230 c3         1 1WI      -0.086900
      7 C24        -13.3490    16.7660   -32.2850 c3         1 1WI      -0.086900
      8 C01        -24.8890    18.4960   -37.5110 c          1 1WI       0.596600
      9 C02        -23.4040    19.7740   -36.0530 c          1 1WI       0.622000
     10 C03        -24.4600    17.6930   -35.1760 ca         1 1WI       0.118600
     11 C04        -24.6730    16.7480   -34.1450 ca         1 1WI      -0.165000
     12 C05        -25.5100    15.6390   -34.3510 ca         1 1WI      -0.043000
     13 C06        -26.1470    15.4610   -35.5860 ca         1 1WI      -0.147000
     14 C07        -25.9470    16.3900   -36.6180 ca         1 1WI      -0.014000
     15 C08        -25.1060    17.5050   -36.4140 ca         1 1WI      -0.210600
     16 C09        -22.9060    19.0770   -33.7170 c3         1 1WI       0.150300
     17 C11        -21.5830    17.4900   -32.2310 ca         1 1WI      -0.069000
     18 C12        -20.5120    16.6070   -32.0160 ca         1 1WI      -0.149000
     19 C14        -19.6820    17.0460   -34.2660 ca         1 1WI      -0.174600
     20 C16        -18.6930    16.8130   -35.3690 c          1 1WI       0.624700
     21 C18        -15.4280    18.4030   -34.0700 c6         1 1WI       0.086000
     22 C19        -14.8170    16.5670   -35.6080 c          1 1WI       0.554000
     23 C23        -12.0300    18.8480   -35.3880 c3         1 1WI      -0.087600
     24 C25        -14.1300    15.4490   -32.0850 c3         1 1WI      -0.087600
     25 F01        -18.5890    15.4740   -32.8210 f          1 1WI      -0.174000
     26 N01        -24.0590    19.5260   -37.2140 ns         1 1WI      -0.466500
     27 N02        -23.6080    18.8470   -35.0090 n          1 1WI      -0.309000
     28 N03        -17.3260    17.0600   -35.1150 n          1 1WI      -0.401800
     29 N04        -14.5090    17.3120   -34.4550 n          1 1WI      -0.403800
     30 O02        -22.6810    20.7520   -35.9580 o          1 1WI      -0.562000
     31 O03        -19.0640    16.3920   -36.4570 o          1 1WI      -0.583100
     32 O04        -14.0110    15.8160   -36.1420 o          1 1WI      -0.571000
     33 H1         -20.8760    18.4030   -35.4510 ha         1 1WI       0.136000
     34 H2         -17.5530    18.7190   -33.7870 h1         1 1WI       0.064700
     35 H3         -16.9150    17.2480   -33.0360 h1         1 1WI       0.064700
     36 H4         -16.2640    17.4130   -36.9310 h1         1 1WI       0.090700
     37 H5         -16.5220    15.6950   -36.5580 h1         1 1WI       0.090700
     38 H6         -12.6330    16.3680   -34.2490 h1         1 1WI       0.090700
     39 H7         -11.3520    18.2790   -33.4220 hc         1 1WI       0.041450
     40 H8         -12.7830    19.2980   -33.4070 hc         1 1WI       0.041450
     41 H9         -12.3520    16.6460   -31.8430 hc         1 1WI       0.041450
     42 H10        -13.8440    17.5650   -31.7210 hc         1 1WI       0.041450
     43 H11        -24.1970    16.8500   -33.1760 ha         1 1WI       0.125000
     44 H12        -25.6650    14.9180   -33.5500 ha         1 1WI       0.120000
     45 H13        -26.7960    14.6020   -35.7460 ha         1 1WI       0.127000
     46 H14        -26.4470    16.2420   -37.5740 ha         1 1WI       0.141000
     47 H15        -22.5380    20.1090   -33.6560 h1         1 1WI       0.080700
     48 H16        -23.6350    18.9800   -32.9020 h1         1 1WI       0.080700
     49 H17        -22.3060    17.6580   -31.4350 ha         1 1WI       0.121000
     50 H18        -20.4150    16.0880   -31.0650 ha         1 1WI       0.139000
     51 H19        -15.1200    18.8610   -33.1200 h1         1 1WI       0.055700
     52 H20        -15.3960    19.1860   -34.8400 h1         1 1WI       0.055700
     53 H21        -11.3570    19.7130   -35.4260 hc         1 1WI       0.037700
     54 H22        -11.5540    18.0210   -35.9280 hc         1 1WI       0.037700
     55 H23        -12.9560    19.1150   -35.9100 hc         1 1WI       0.037700
     56 H24        -14.1590    15.1810   -31.0220 hc         1 1WI       0.037700
     57 H25        -15.1630    15.5440   -32.4380 hc         1 1WI       0.037700
     58 H26        -13.6520    14.6280   -32.6320 hc         1 1WI       0.037700
     59 H27        -23.9080    20.1950   -37.9520 hn         1 1WI       0.347500
     60 O01        -25.4110    18.4070   -38.6110 o          1 1WI      -0.522000
     61 C21        -13.1920    17.1830   -33.7710 c3         1 1WI       0.100700
@<TRIPOS>BOND
     1     1     3 ar  
     2     1    16 1   
     3     1    17 ar  
     4     2    18 ar  
     5     2    19 ar  
     6     2    25 1   
     7     3    19 ar  
     8     3    33 1   
     9     4    21 1   
    10     4    28 1   
    11     4    34 1   
    12     4    35 1   
    13     5    22 1   
    14     5    28 1   
    15     5    36 1   
    16     5    37 1   
    17     6    23 1   
    18     6    39 1   
    19     6    40 1   
    20     6    61 1   
    21     7    24 1   
    22     7    41 1   
    23     7    42 1   
    24     7    61 1   
    25     8    15 1   
    26     8    26 1   
    27     8    60 2   
    28     9    26 1   
    29     9    27 1   
    30     9    30 2   
    31    10    11 ar  
    32    10    15 ar  
    33    10    27 1   
    34    11    12 ar  
    35    11    43 1   
    36    12    13 ar  
    37    12    44 1   
    38    13    14 ar  
    39    13    45 1   
    40    14    15 ar  
    41    14    46 1   
    42    16    27 1   
    43    16    47 1   
    44    16    48 1   
    45    17    18 ar  
    46    17    49 1   
    47    18    50 1   
    48    19    20 1   
    49    20    28 1   
    50    20    31 2   
    51    21    29 1   
    52    21    51 1   
    53    21    52 1   
    54    22    29 1   
    55    22    32 2   
    56    23    53 1   
    57    23    54 1   
    58    23    55 1   
    59    24    56 1   
    60    24    57 1   
    61    24    58 1   
    62    26    59 1   
    63    29    61 1   
    64    38    61 1   
@<TRIPOS>SUBSTRUCTURE
     1 1WI         1 TEMP              0 ****  ****    0 ROOT
