@<TRIPOS>MOLECULE
1WI
   61    64     1     0     0
SMALL
abcg2


@<TRIPOS>ATOM
      1 C10        -21.6950    17.8910   -32.9560 ca         1 1WI      -0.128300
      2 C13        -20.0960    15.8250   -32.0590 ca         1 1WI       0.191000
      3 C15        -20.7340    17.3320   -33.7890 ca         1 1WI      -0.029000
      4 C17        -17.0310    16.4650   -32.9250 c6         1 1WI       0.091000
      5 C20        -16.6730    15.1440   -34.9500 c6         1 1WI       0.011000
      6 C22        -14.0900    19.1430   -35.0080 c3         1 1WI      -0.086900
      7 C24        -12.9960    17.6620   -33.2550 c3         1 1WI      -0.086900
      8 C01        -23.0540    19.2250   -37.6710 c          1 1WI       0.596600
      9 C02        -22.0350    20.0420   -35.5620 c          1 1WI       0.622000
     10 C03        -23.5990    18.1840   -35.4860 ca         1 1WI       0.118600
     11 C04        -24.2860    17.2100   -34.7510 ca         1 1WI      -0.165000
     12 C05        -25.1220    16.3150   -35.3980 ca         1 1WI      -0.043000
     13 C06        -25.2960    16.3590   -36.7820 ca         1 1WI      -0.147000
     14 C07        -24.6190    17.3140   -37.5140 ca         1 1WI      -0.014000
     15 C08        -23.7710    18.2260   -36.8800 ca         1 1WI      -0.210600
     16 C09        -22.5550    19.0500   -33.4090 c3         1 1WI       0.150300
     17 C11        -21.8500    17.3870   -31.6650 ca         1 1WI      -0.069000
     18 C12        -21.0500    16.3480   -31.2080 ca         1 1WI      -0.149000
     19 C14        -19.9130    16.2950   -33.3500 ca         1 1WI      -0.174600
     20 C16        -18.9480    15.6670   -34.3150 c          1 1WI       0.624700
     21 C18        -16.1030    17.5340   -33.4590 c6         1 1WI       0.086000
     22 C19        -15.3430    15.8680   -35.1010 c          1 1WI       0.554000
     23 C23        -14.8640    19.2260   -36.3210 c3         1 1WI      -0.087600
     24 C25        -12.7160    16.2480   -32.7570 c3         1 1WI      -0.087600
     25 F01        -19.3160    14.8080   -31.6180 f          1 1WI      -0.174000
     26 N01        -22.2430    20.0570   -36.9270 ns         1 1WI      -0.466500
     27 N02        -22.7510    19.1000   -34.8580 n          1 1WI      -0.309000
     28 N03        -17.6300    15.7560   -34.0440 n          1 1WI      -0.401800
     29 N04        -15.1080    16.9740   -34.3720 n          1 1WI      -0.403800
     30 O02        -21.2560    20.8270   -35.0410 o          1 1WI      -0.562000
     31 O03        -19.3850    15.1070   -35.3220 o          1 1WI      -0.583100
     32 O04        -14.5330    15.3790   -35.8940 o          1 1WI      -0.571000
     33 H1         -20.6110    17.6890   -34.8030 ha         1 1WI       0.136000
     34 H2         -17.8010    16.9330   -32.3210 h1         1 1WI       0.064700
     35 H3         -16.4810    15.7560   -32.3020 h1         1 1WI       0.064700
     36 H4         -17.1170    15.0770   -35.9400 h1         1 1WI       0.090700
     37 H5         -16.4370    14.1250   -34.6260 h1         1 1WI       0.090700
     38 H6         -13.3040    17.1750   -35.3160 h1         1 1WI       0.090700
     39 H7         -13.1120    19.6170   -35.1260 hc         1 1WI       0.041450
     40 H8         -14.6100    19.7070   -34.2280 hc         1 1WI       0.041450
     41 H9         -12.0550    18.1700   -33.4790 hc         1 1WI       0.041450
     42 H10        -13.4770    18.2490   -32.4670 hc         1 1WI       0.041450
     43 H11        -24.1690    17.1400   -33.6820 ha         1 1WI       0.125000
     44 H12        -25.6430    15.5700   -34.8110 ha         1 1WI       0.120000
     45 H13        -25.9510    15.6530   -37.2740 ha         1 1WI       0.127000
     46 H14        -24.7270    17.3780   -38.5880 ha         1 1WI       0.141000
     47 H15        -22.0860    19.9910   -33.1310 h1         1 1WI       0.080700
     48 H16        -23.5280    19.0140   -32.9230 h1         1 1WI       0.080700
     49 H17        -22.6080    17.8010   -31.0130 ha         1 1WI       0.121000
     50 H18        -21.1650    15.9400   -30.2130 ha         1 1WI       0.139000
     51 H19        -15.5820    17.9990   -32.6240 h1         1 1WI       0.055700
     52 H20        -16.6860    18.3080   -33.9650 h1         1 1WI       0.055700
     53 H21        -14.9840    20.2640   -36.6360 hc         1 1WI       0.037700
     54 H22        -14.3410    18.6900   -37.1170 hc         1 1WI       0.037700
     55 H23        -15.8600    18.7900   -36.2260 hc         1 1WI       0.037700
     56 H24        -12.0750    16.2690   -31.8730 hc         1 1WI       0.037700
     57 H25        -13.6390    15.7310   -32.4880 hc         1 1WI       0.037700
     58 H26        -12.2130    15.6540   -33.5240 hc         1 1WI       0.037700
     59 H27        -21.7150    20.7570   -37.4330 hn         1 1WI       0.347500
     60 O01        -23.1280    19.3530   -38.8850 o          1 1WI      -0.522000
     61 C21        -13.8390    17.7100   -34.5330 c3         1 1WI       0.100700
@<TRIPOS>BOND
     1     1     3 ar  
     2     1    16 1   
     3     1    17 ar  
     4     2    18 ar  
     5     2    19 ar  
     6     2    25 1   
     7     3    19 ar  
     8     3    33 1   
     9     4    21 1   
    10     4    28 1   
    11     4    34 1   
    12     4    35 1   
    13     5    22 1   
    14     5    28 1   
    15     5    36 1   
    16     5    37 1   
    17     6    23 1   
    18     6    39 1   
    19     6    40 1   
    20     6    61 1   
    21     7    24 1   
    22     7    41 1   
    23     7    42 1   
    24     7    61 1   
    25     8    15 1   
    26     8    26 1   
    27     8    60 2   
    28     9    26 1   
    29     9    27 1   
    30     9    30 2   
    31    10    11 ar  
    32    10    15 ar  
    33    10    27 1   
    34    11    12 ar  
    35    11    43 1   
    36    12    13 ar  
    37    12    44 1   
    38    13    14 ar  
    39    13    45 1   
    40    14    15 ar  
    41    14    46 1   
    42    16    27 1   
    43    16    47 1   
    44    16    48 1   
    45    17    18 ar  
    46    17    49 1   
    47    18    50 1   
    48    19    20 1   
    49    20    28 1   
    50    20    31 2   
    51    21    29 1   
    52    21    51 1   
    53    21    52 1   
    54    22    29 1   
    55    22    32 2   
    56    23    53 1   
    57    23    54 1   
    58    23    55 1   
    59    24    56 1   
    60    24    57 1   
    61    24    58 1   
    62    26    59 1   
    63    29    61 1   
    64    38    61 1   
@<TRIPOS>SUBSTRUCTURE
     1 1WI         1 TEMP              0 ****  ****    0 ROOT
