@<TRIPOS>MOLECULE
1WJ
   53    56     1     0     0
SMALL
No Charge or Current Charge


@<TRIPOS>ATOM
      1 C1           9.6680    17.7270    91.6620 ca         1 1WJ      -0.222600
      2 C2          10.4990    17.8320    90.5260 ca         1 1WJ      -0.029000
      3 C3           9.9890    17.3940    89.3050 ca         1 1WJ      -0.106200
      4 C4           8.7350    16.8700    89.1770 ca         1 1WJ       0.155400
      5 C5           7.8850    16.7450    90.2940 ca         1 1WJ      -0.058300
      6 C6           6.4840    16.1570    90.0910 c3         1 1WJ      -0.007100
      7 C7           5.4830    17.2050    89.5450 c3         1 1WJ      -0.084400
      8 C8           8.3540    17.1880    91.5670 ca         1 1WJ       0.218400
      9 C13         10.1570    18.1850    92.9870 c          1 1WJ       0.589600
     10 N9           7.4940    17.0810    92.6820 nc         1 1WJ      -0.698100
     11 C10          8.0390    17.5220    93.7870 cd         1 1WJ       0.697800
     12 N11          7.2600    17.4440    94.8530 nv         1 1WJ      -1.027200
     13 N12          9.2590    18.0380    93.9780 ns         1 1WJ      -0.451400
     14 O14         11.2670    18.6540    93.1870 o          1 1WJ      -0.557000
     15 N15         10.5890    17.4030    88.0750 na         1 1WJ      -0.366600
     16 N16          8.4720    16.5230    87.8550 nc         1 1WJ      -0.664100
     17 C17          9.6130    16.8660    87.2560 cd         1 1WJ       0.677700
     18 N18          9.7970    16.7030    85.9290 nu         1 1WJ      -0.902400
     19 C19          8.8270    16.1490    84.9690 c3         1 1WJ       0.231100
     20 C20          2.7850    17.2940    87.0250 c5         1 1WJ       0.368300
     21 O21          2.6400    18.5010    86.2430 os         1 1WJ      -0.488000
     22 C22          1.7430    19.4970    86.7630 c3         1 1WJ       0.154900
     23 O23          3.4550    17.6360    88.2640 os         1 1WJ      -0.472000
     24 C24          4.5080    16.6730    88.4680 c5         1 1WJ       0.141300
     25 C25          5.0840    16.5340    87.0280 c5         1 1WJ       0.120300
     26 O26          6.0880    15.5210    86.8470 oh         1 1WJ      -0.712000
     27 C27          3.7410    16.3230    86.2390 c5         1 1WJ       0.150300
     28 O28          3.1850    14.9780    86.4080 os         1 1WJ      -0.447000
     29 C            3.7220    13.9150    85.5980 c3         1 1WJ       0.149900
     30 H1          11.5040    18.2460    90.5920 ha         1 1WJ       0.137000
     31 H2           6.0810    15.7240    91.0140 hc         1 1WJ       0.053700
     32 H3           6.5500    15.3050    89.4070 hc         1 1WJ       0.053700
     33 H4           6.0360    18.0550    89.1280 hc         1 1WJ       0.057700
     34 H5           4.9150    17.6070    90.3930 hc         1 1WJ       0.057700
     35 H6           6.2970    17.2240    94.6330 hn         1 1WJ       0.484500
     36 H7           7.3940    18.1320    95.5830 hn         1 1WJ       0.484500
     37 H8           9.5540    18.3170    94.8980 hn         1 1WJ       0.325500
     38 H9          11.5090    17.7220    87.8090 hn         1 1WJ       0.355000
     39 H11         10.7070    16.9990    85.5820 hn         1 1WJ       0.487000
     40 H12          9.2590    16.1170    83.9600 h1         1 1WJ       0.046033
     41 H13          8.5430    15.1270    85.2550 h1         1 1WJ       0.046033
     42 H14          7.9210    16.7680    84.9370 h1         1 1WJ       0.046033
     43 H16          1.6890    20.3550    86.0810 h1         1 1WJ       0.034700
     44 H17          0.7310    19.0880    86.8790 h1         1 1WJ       0.034700
     45 H18          2.0850    19.8620    87.7410 h1         1 1WJ       0.034700
     46 H19          4.0610    15.7300    88.8180 h1         1 1WJ       0.075700
     47 H20          5.5110    17.5020    86.7290 h1         1 1WJ       0.060700
     48 H21          6.9330    15.8800    87.2440 ho         1 1WJ       0.508000
     49 H22          3.8160    16.5740    85.1730 h1         1 1WJ       0.068700
     50 H23          3.1170    13.0070    85.7190 h1         1 1WJ       0.034700
     51 H24          3.7110    14.1900    84.5360 h1         1 1WJ       0.034700
     52 H25          4.7500    13.6640    85.8830 h1         1 1WJ       0.034700
     53 H15          1.8090    16.8270    87.2130 h2         1 1WJ       0.080700
@<TRIPOS>BOND
     1     1     2 ar  
     2     1     8 ar  
     3     1     9 1   
     4     2     3 ar  
     5     2    30 1   
     6     3     4 ar  
     7     3    15 1   
     8     4     5 ar  
     9     4    16 1   
    10     5     6 1   
    11     5     8 ar  
    12     6     7 1   
    13     6    31 1   
    14     6    32 1   
    15     7    24 1   
    16     7    33 1   
    17     7    34 1   
    18     8    10 1   
    19     9    13 1   
    20     9    14 2   
    21    10    11 2   
    22    11    12 1   
    23    11    13 1   
    24    12    35 1   
    25    12    36 1   
    26    13    37 1   
    27    15    17 1   
    28    15    38 1   
    29    16    17 2   
    30    17    18 1   
    31    18    19 1   
    32    18    39 1   
    33    19    40 1   
    34    19    41 1   
    35    19    42 1   
    36    20    21 1   
    37    20    23 1   
    38    20    27 1   
    39    20    53 1   
    40    21    22 1   
    41    22    43 1   
    42    22    44 1   
    43    22    45 1   
    44    23    24 1   
    45    24    25 1   
    46    24    46 1   
    47    25    26 1   
    48    25    27 1   
    49    25    47 1   
    50    26    48 1   
    51    27    28 1   
    52    27    49 1   
    53    28    29 1   
    54    29    50 1   
    55    29    51 1   
    56    29    52 1   
@<TRIPOS>SUBSTRUCTURE
     1 1WJ         1 TEMP              0 ****  ****    0 ROOT
