@<TRIPOS>MOLECULE
1WJ
   53    56     1     0     0
SMALL
abcg2


@<TRIPOS>ATOM
      1 C1           9.5400    17.8140    91.5800 ca         1 1WJ      -0.222600
      2 C2          10.4910    18.2720    90.6510 ca         1 1WJ      -0.029000
      3 C3          10.2420    18.0110    89.3300 ca         1 1WJ      -0.106200
      4 C4           9.0810    17.3100    88.8960 ca         1 1WJ       0.155400
      5 C5           8.1340    16.8510    89.8030 ca         1 1WJ      -0.058300
      6 C6           6.8950    16.1450    89.3310 c3         1 1WJ      -0.007100
      7 C7           5.7450    17.1260    89.0580 c3         1 1WJ      -0.084400
      8 C8           8.3690    17.1130    91.1720 ca         1 1WJ       0.218400
      9 C13          9.7510    18.0580    92.9930 c          1 1WJ       0.589600
     10 N9           7.4280    16.6780    92.0890 nc         1 1WJ      -0.698100
     11 C10          7.6400    16.9030    93.3480 cd         1 1WJ       0.697800
     12 N11          6.7770    16.4370    94.2970 nv         1 1WJ      -1.027200
     13 N12          8.7490    17.5660    93.8130 ns         1 1WJ      -0.451400
     14 O14         10.7140    18.6440    93.4930 o          1 1WJ      -0.557000
     15 N15         10.9360    18.3020    88.1650 na         1 1WJ      -0.366600
     16 N16          9.0910    17.1910    87.5160 nc         1 1WJ      -0.664100
     17 C17         10.2060    17.7940    87.1200 cd         1 1WJ       0.677700
     18 N18         10.5980    17.9380    85.8430 nu         1 1WJ      -0.902400
     19 C19          9.9130    17.2650    84.7520 c3         1 1WJ       0.231100
     20 C20          2.8420    17.2940    87.2230 c5         1 1WJ       0.368300
     21 O21          3.5020    18.1050    86.2810 os         1 1WJ      -0.488000
     22 C22          3.3490    19.5010    86.5210 c3         1 1WJ       0.154900
     23 O23          3.3960    17.4150    88.5210 os         1 1WJ      -0.472000
     24 C24          4.4430    16.4300    88.7070 c5         1 1WJ       0.141300
     25 C25          4.4630    15.5990    87.4090 c5         1 1WJ       0.120300
     26 O26          4.7100    14.2160    87.6200 oh         1 1WJ      -0.712000
     27 C27          3.0640    15.8410    86.8250 c5         1 1WJ       0.150300
     28 O28          2.0680    15.0610    87.4630 os         1 1WJ      -0.447000
     29 C            1.7400    13.8570    86.7770 c3         1 1WJ       0.149900
     30 H1          11.3690    18.8050    90.9890 ha         1 1WJ       0.137000
     31 H2           6.5790    15.4180    90.0800 hc         1 1WJ       0.053700
     32 H3           7.1350    15.6000    88.4160 hc         1 1WJ       0.053700
     33 H4           6.0210    17.7990    88.2410 hc         1 1WJ       0.057700
     34 H5           5.5820    17.7410    89.9460 hc         1 1WJ       0.057700
     35 H6           5.8790    16.1420    93.9460 hn         1 1WJ       0.484500
     36 H7           6.7520    16.9050    95.1900 hn         1 1WJ       0.484500
     37 H8           8.8760    17.7030    94.8070 hn         1 1WJ       0.325500
     38 H9          11.8100    18.7970    88.0910 hn         1 1WJ       0.355000
     39 H11         11.5380    18.2630    85.6790 hn         1 1WJ       0.487000
     40 H12         10.3700    17.5830    83.8180 h1         1 1WJ       0.046033
     41 H13          9.9860    16.1770    84.8340 h1         1 1WJ       0.046033
     42 H14          8.8590    17.5410    84.7410 h1         1 1WJ       0.046033
     43 H16          3.8250    20.0190    85.6900 h1         1 1WJ       0.034700
     44 H17          2.2880    19.7710    86.5590 h1         1 1WJ       0.034700
     45 H18          3.8290    19.7970    87.4560 h1         1 1WJ       0.034700
     46 H19          4.1360    15.7750    89.5290 h1         1 1WJ       0.075700
     47 H20          5.1990    16.0120    86.7150 h1         1 1WJ       0.060700
     48 H21          5.6630    14.0740    87.6320 ho         1 1WJ       0.508000
     49 H22          3.0270    15.7080    85.7420 h1         1 1WJ       0.068700
     50 H23          0.9410    13.3810    87.3440 h1         1 1WJ       0.034700
     51 H24          1.3830    14.0750    85.7640 h1         1 1WJ       0.034700
     52 H25          2.5970    13.1840    86.7190 h1         1 1WJ       0.034700
     53 H15          1.7870    17.5720    87.2920 h2         1 1WJ       0.080700
@<TRIPOS>BOND
     1     1     2 ar  
     2     1     8 ar  
     3     1     9 1   
     4     2     3 ar  
     5     2    30 1   
     6     3     4 ar  
     7     3    15 1   
     8     4     5 ar  
     9     4    16 1   
    10     5     6 1   
    11     5     8 ar  
    12     6     7 1   
    13     6    31 1   
    14     6    32 1   
    15     7    24 1   
    16     7    33 1   
    17     7    34 1   
    18     8    10 1   
    19     9    13 1   
    20     9    14 2   
    21    10    11 2   
    22    11    12 1   
    23    11    13 1   
    24    12    35 1   
    25    12    36 1   
    26    13    37 1   
    27    15    17 1   
    28    15    38 1   
    29    16    17 2   
    30    17    18 1   
    31    18    19 1   
    32    18    39 1   
    33    19    40 1   
    34    19    41 1   
    35    19    42 1   
    36    20    21 1   
    37    20    23 1   
    38    20    27 1   
    39    20    53 1   
    40    21    22 1   
    41    22    43 1   
    42    22    44 1   
    43    22    45 1   
    44    23    24 1   
    45    24    25 1   
    46    24    46 1   
    47    25    26 1   
    48    25    27 1   
    49    25    47 1   
    50    26    48 1   
    51    27    28 1   
    52    27    49 1   
    53    28    29 1   
    54    29    50 1   
    55    29    51 1   
    56    29    52 1   
@<TRIPOS>SUBSTRUCTURE
     1 1WJ         1 TEMP              0 ****  ****    0 ROOT
