@<TRIPOS>MOLECULE
1WK
   50    53     1     0     0
SMALL
abcg2


@<TRIPOS>ATOM
      1 C1           9.6720    17.6110    91.3020 ca         1 1WK      -0.222600
      2 C2          10.6560    18.0380    90.3930 ca         1 1WK      -0.029000
      3 C3          10.4230    17.7890    89.0670 ca         1 1WK      -0.106200
      4 C4           9.2470    17.1320    88.6080 ca         1 1WK       0.155400
      5 C5           8.2670    16.7020    89.4970 ca         1 1WK      -0.056300
      6 C6           7.0120    16.0480    88.9940 c3         1 1WK      -0.005100
      7 C7           5.9140    17.0810    88.7030 c3         1 1WK      -0.084400
      8 C8           8.4850    16.9520    90.8700 ca         1 1WK       0.217400
      9 C9           9.8600    17.8550    92.7180 c          1 1WK       0.589600
     10 N10          7.5190    16.5380    91.7700 nc         1 1WK      -0.697100
     11 C11          7.7040    16.7740    93.0310 cd         1 1WK       0.698800
     12 N12          6.7520    16.4490    93.9520 nv         1 1WK      -1.028200
     13 N13          8.8240    17.4040    93.5170 ns         1 1WK      -0.451400
     14 O14         10.8300    18.4140    93.2370 o          1 1WK      -0.558000
     15 N15         11.1480    18.0620    87.9160 na         1 1WK      -0.367600
     16 N16          9.2750    17.0230    87.2280 nc         1 1WK      -0.664100
     17 C17         10.4180    17.5880    86.8550 cd         1 1WK       0.677700
     18 N18         10.8370    17.7290    85.5860 nu         1 1WK      -0.903400
     19 C19         10.1450    17.0970    84.4760 c3         1 1WK       0.232100
     20 C20          3.5570    16.2180    86.0040 c5         1 1WK       0.117300
     21 O21          2.4540    15.3760    86.3000 oh         1 1WK      -0.715000
     22 C22          4.8070    15.7730    86.7860 c5         1 1WK       0.098300
     23 O23          4.8670    14.3600    86.9510 oh         1 1WK      -0.720000
     24 C24          4.6430    16.4550    88.1550 c5         1 1WK       0.171300
     25 O25          3.6260    17.4680    87.9730 os         1 1WK      -0.471000
     26 C26          3.3050    17.5930    86.6000 c5         1 1WK       0.369300
     27 O27          4.1440    18.5020    85.9300 os         1 1WK      -0.489000
     28 C28          3.9860    19.8510    86.3610 c3         1 1WK       0.153900
     29 H1          11.5440    18.5410    90.7490 ha         1 1WK       0.137000
     30 H2           6.6470    15.3310    89.7290 hc         1 1WK       0.057700
     31 H3           7.2410    15.4980    88.0800 hc         1 1WK       0.057700
     32 H4           6.2820    17.8160    87.9830 hc         1 1WK       0.059200
     33 H5           5.6710    17.6180    89.6230 hc         1 1WK       0.059200
     34 H6           6.0410    15.8130    93.6260 hn         1 1WK       0.484500
     35 H7           7.0350    16.3150    94.9110 hn         1 1WK       0.484500
     36 H8           8.9180    17.5740    94.5100 hn         1 1WK       0.325500
     37 H9          12.0400    18.5280    87.8600 hn         1 1WK       0.355000
     38 H11         11.7870    18.0280    85.4400 hn         1 1WK       0.488000
     39 H12         10.6360    17.4000    83.5540 h1         1 1WK       0.045700
     40 H13         10.1660    16.0060    84.5500 h1         1 1WK       0.045700
     41 H14          9.1040    17.4210    84.4440 h1         1 1WK       0.045700
     42 H15          3.7310    16.2690    84.9270 h1         1 1WK       0.068700
     43 H17          5.7040    16.1340    86.2810 h1         1 1WK       0.071700
     44 H18          5.3020    13.9770    86.1780 ho         1 1WK       0.510000
     45 H19          4.2490    15.7230    88.8660 h1         1 1WK       0.077700
     46 H20          2.2620    17.9190    86.5420 h2         1 1WK       0.086700
     47 H21          4.6260    20.4620    85.7270 h1         1 1WK       0.035367
     48 H22          2.9450    20.1720    86.2470 h1         1 1WK       0.035367
     49 H23          4.2870    19.9700    87.4040 h1         1 1WK       0.035367
     50 H16          2.8250    14.5030    86.5060 ho         1 1WK       0.523000
@<TRIPOS>BOND
     1     1     2 ar  
     2     1     8 ar  
     3     1     9 1   
     4     2     3 ar  
     5     2    29 1   
     6     3     4 ar  
     7     3    15 1   
     8     4     5 ar  
     9     4    16 1   
    10     5     6 1   
    11     5     8 ar  
    12     6     7 1   
    13     6    30 1   
    14     6    31 1   
    15     7    24 1   
    16     7    32 1   
    17     7    33 1   
    18     8    10 1   
    19     9    13 1   
    20     9    14 2   
    21    10    11 2   
    22    11    12 1   
    23    11    13 1   
    24    12    34 1   
    25    12    35 1   
    26    13    36 1   
    27    15    17 1   
    28    15    37 1   
    29    16    17 2   
    30    17    18 1   
    31    18    19 1   
    32    18    38 1   
    33    19    39 1   
    34    19    40 1   
    35    19    41 1   
    36    20    21 1   
    37    20    22 1   
    38    20    26 1   
    39    20    42 1   
    40    21    50 1   
    41    22    23 1   
    42    22    24 1   
    43    22    43 1   
    44    23    44 1   
    45    24    25 1   
    46    24    45 1   
    47    25    26 1   
    48    26    27 1   
    49    26    46 1   
    50    27    28 1   
    51    28    47 1   
    52    28    48 1   
    53    28    49 1   
@<TRIPOS>SUBSTRUCTURE
     1 1WK         1 TEMP              0 ****  ****    0 ROOT
