@<TRIPOS>MOLECULE
1WK
   50    53     1     0     0
SMALL
No Charge or Current Charge


@<TRIPOS>ATOM
      1 C1           9.6110    17.6730    91.2860 ca         1 1WK      -0.222600
      2 C2          10.5860    18.0760    90.3480 ca         1 1WK      -0.029000
      3 C3          10.3540    17.7890    89.0040 ca         1 1WK      -0.106200
      4 C4           9.2320    17.1390    88.5730 ca         1 1WK       0.155400
      5 C5           8.2420    16.7190    89.4850 ca         1 1WK      -0.056300
      6 C6           6.9910    16.0010    88.9630 c3         1 1WK      -0.005100
      7 C7           5.8460    16.9880    88.6450 c3         1 1WK      -0.084400
      8 C8           8.4290    16.9940    90.8730 ca         1 1WK       0.217400
      9 C9           9.8020    17.9600    92.7300 c          1 1WK       0.589600
     10 N10          7.4310    16.5840    91.7850 nc         1 1WK      -0.697100
     11 C11          7.7180    16.8930    93.0240 cd         1 1WK       0.698800
     12 N12          6.8100    16.5170    93.9080 nv         1 1WK      -1.028200
     13 N13          8.7950    17.5230    93.5080 ns         1 1WK      -0.451400
     14 O14         10.7720    18.5380    93.1940 o          1 1WK      -0.558000
     15 N15         11.1370    18.0810    87.9210 na         1 1WK      -0.367600
     16 N16          9.2480    16.9870    87.1910 nc         1 1WK      -0.664100
     17 C17         10.4020    17.5680    86.8660 cd         1 1WK       0.677700
     18 N18         10.8240    17.6480    85.5860 nu         1 1WK      -0.903400
     19 C19         10.1060    17.1530    84.3990 c3         1 1WK       0.232100
     20 C20          3.4580    16.2180    85.9060 c5         1 1WK       0.117300
     21 O21          2.3560    15.3150    86.0890 oh         1 1WK      -0.715000
     22 C22          4.6910    15.6590    86.6810 c5         1 1WK       0.098300
     23 O23          4.6440    14.2140    86.7080 oh         1 1WK      -0.720000
     24 C24          4.5540    16.3220    88.1090 c5         1 1WK       0.171300
     25 O25          3.5050    17.3170    88.0030 os         1 1WK      -0.471000
     26 C26          3.2810    17.6030    86.6080 c5         1 1WK       0.369300
     27 O27          4.3280    18.4850    86.1380 os         1 1WK      -0.489000
     28 C28          4.3180    19.8250    86.6580 c3         1 1WK       0.153900
     29 H1          11.4910    18.5970    90.6570 ha         1 1WK       0.137000
     30 H2           6.6370    15.2540    89.6840 hc         1 1WK       0.057700
     31 H3           7.2380    15.4310    88.0600 hc         1 1WK       0.057700
     32 H4           6.2140    17.7250    87.9210 hc         1 1WK       0.059200
     33 H5           5.6080    17.5460    89.5580 hc         1 1WK       0.059200
     34 H6           6.1120    15.8900    93.5270 hn         1 1WK       0.484500
     35 H7           7.1290    16.2970    94.8430 hn         1 1WK       0.484500
     36 H8           8.8720    17.7140    94.4920 hn         1 1WK       0.325500
     37 H9          12.0280    18.5520    87.8770 hn         1 1WK       0.355000
     38 H11         11.7160    18.1200    85.4540 hn         1 1WK       0.488000
     39 H12         10.6790    17.3630    83.4860 h1         1 1WK       0.045700
     40 H13          9.9510    16.0680    84.4680 h1         1 1WK       0.045700
     41 H14          9.1250    17.6390    84.3110 h1         1 1WK       0.045700
     42 H15          3.6820    16.3420    84.8370 h1         1 1WK       0.068700
     43 H17          5.6140    16.0070    86.1920 h1         1 1WK       0.071700
     44 H18          5.5560    13.8880    86.9030 ho         1 1WK       0.510000
     45 H19          4.2240    15.5790    88.8480 h1         1 1WK       0.077700
     46 H20          2.2880    18.0390    86.4330 h2         1 1WK       0.086700
     47 H21          5.1390    20.4090    86.2230 h1         1 1WK       0.035367
     48 H22          3.3730    20.3290    86.4160 h1         1 1WK       0.035367
     49 H23          4.4420    19.8250    87.7480 h1         1 1WK       0.035367
     50 H16          2.8320    14.4960    86.3910 ho         1 1WK       0.523000
@<TRIPOS>BOND
     1     1     2 ar  
     2     1     8 ar  
     3     1     9 1   
     4     2     3 ar  
     5     2    29 1   
     6     3     4 ar  
     7     3    15 1   
     8     4     5 ar  
     9     4    16 1   
    10     5     6 1   
    11     5     8 ar  
    12     6     7 1   
    13     6    30 1   
    14     6    31 1   
    15     7    24 1   
    16     7    32 1   
    17     7    33 1   
    18     8    10 1   
    19     9    13 1   
    20     9    14 2   
    21    10    11 2   
    22    11    12 1   
    23    11    13 1   
    24    12    34 1   
    25    12    35 1   
    26    13    36 1   
    27    15    17 1   
    28    15    37 1   
    29    16    17 2   
    30    17    18 1   
    31    18    19 1   
    32    18    38 1   
    33    19    39 1   
    34    19    40 1   
    35    19    41 1   
    36    20    21 1   
    37    20    22 1   
    38    20    26 1   
    39    20    42 1   
    40    21    50 1   
    41    22    23 1   
    42    22    24 1   
    43    22    43 1   
    44    23    44 1   
    45    24    25 1   
    46    24    45 1   
    47    25    26 1   
    48    26    27 1   
    49    26    46 1   
    50    27    28 1   
    51    28    47 1   
    52    28    48 1   
    53    28    49 1   
@<TRIPOS>SUBSTRUCTURE
     1 1WK         1 TEMP              0 ****  ****    0 ROOT
