@<TRIPOS>MOLECULE
1WO
   49    51     1     0     0
SMALL
bcc


@<TRIPOS>ATOM
      1 OAA         -3.5310     1.7860    -0.1370 o          1 1WO      -0.535100
      2 CAB         -2.7200     0.8700    -0.0920 c          1 1WO       0.540500
      3 CAC         -1.2840     1.2380    -0.2550 cc         1 1WO       0.030900
      4 OAD         -1.1200     2.5360    -0.5060 oh         1 1WO      -0.481100
      5 CAE         -0.2750     0.3390    -0.1700 cd         1 1WO      -0.111200
      6 CAF          1.2080     0.6490    -0.4120 c6         1 1WO       0.040200
      7 CAG          1.3930     0.6060    -1.9390 c3         1 1WO      -0.086100
      8 CAH          1.5990     2.0320     0.1400 c6         1 1WO      -0.066400
      9 CAI          3.0990     2.2880     0.1490 c6         1 1WO      -0.073400
     10 CAJ          3.8320     1.2380     0.9580 c6         1 1WO      -0.074400
     11 CAK          3.6080    -0.1860     0.4340 c6         1 1WO      -0.020000
     12 CAL          4.3930    -0.3720    -0.8710 c3         1 1WO      -0.088100
     13 CAM          4.1950    -1.1450     1.4810 c3         1 1WO      -0.088100
     14 CAN          2.0750    -0.4210     0.3370 c6         1 1WO      -0.142700
     15 CAO          1.6630    -1.8080    -0.0930 c          1 1WO       0.573300
     16 OAP          2.4150    -2.7080    -0.4090 o          1 1WO      -0.513100
     17 CAQ          0.2200    -2.0530    -0.0410 ce         1 1WO      -0.209200
     18 CAR         -0.6810    -1.0480    -0.0240 cd         1 1WO      -0.005000
     19 CAS         -2.0800    -1.4180     0.0920 cd         1 1WO      -0.071000
     20 CAT         -3.0870    -0.5320     0.0820 cc         1 1WO      -0.164400
     21 CAU         -4.5270    -0.9560     0.2180 c3         1 1WO      -0.006500
     22 CAW         -5.1840    -0.3880     1.4770 c3         1 1WO      -0.087100
     23 CAV         -5.3440    -0.6500    -1.0380 c3         1 1WO      -0.087100
     24 H1          -2.0060     2.9410    -0.4950 ho         1 1WO       0.451000
     25 H2           0.7270     1.3290    -2.4110 hc         1 1WO       0.041367
     26 H3           2.4070     0.8520    -2.2480 hc         1 1WO       0.041367
     27 H4           1.1570    -0.3770    -2.3520 hc         1 1WO       0.041367
     28 H5           1.1170     2.8160    -0.4390 hc         1 1WO       0.052700
     29 H6           1.2260     2.1220     1.1660 hc         1 1WO       0.052700
     30 H7           3.4870     2.3330    -0.8730 hc         1 1WO       0.041700
     31 H8           3.2790     3.2780     0.5740 hc         1 1WO       0.041700
     32 H9           4.9070     1.4410     0.9790 hc         1 1WO       0.040700
     33 H10          3.4910     1.2940     1.9990 hc         1 1WO       0.040700
     34 H11          4.1680    -1.3190    -1.3550 hc         1 1WO       0.038533
     35 H12          4.2230     0.4240    -1.5930 hc         1 1WO       0.038533
     36 H13          5.4620    -0.3620    -0.6440 hc         1 1WO       0.038533
     37 H14          3.6030    -1.1440     2.4000 hc         1 1WO       0.038533
     38 H15          4.2620    -2.1700     1.1210 hc         1 1WO       0.038533
     39 H16          5.2050    -0.8220     1.7420 hc         1 1WO       0.038533
     40 H17          1.7240    -0.3580     1.3800 hc         1 1WO       0.068700
     41 H18         -0.1080    -3.0860    -0.0240 ha         1 1WO       0.150000
     42 H19         -2.2920    -2.4750     0.2030 ha         1 1WO       0.141000
     43 H20         -4.5060    -2.0440     0.3300 hc         1 1WO       0.043700
     44 H21         -6.1750    -0.8270     1.6070 hc         1 1WO       0.041367
     45 H22         -4.6000    -0.6220     2.3680 hc         1 1WO       0.041367
     46 H23         -5.3060     0.6930     1.4230 hc         1 1WO       0.041367
     47 H24         -4.8830    -1.0840    -1.9250 hc         1 1WO       0.041367
     48 H25         -6.3430    -1.0780    -0.9410 hc         1 1WO       0.041367
     49 H26         -5.4550     0.4210    -1.2010 hc         1 1WO       0.041367
@<TRIPOS>BOND
     1     1     2 2   
     2     2     3 1   
     3     2    20 1   
     4     3     4 1   
     5     3     5 2   
     6     4    24 1   
     7     5     6 1   
     8     5    18 1   
     9     6     7 1   
    10     6     8 1   
    11     6    14 1   
    12     7    25 1   
    13     7    26 1   
    14     7    27 1   
    15     8     9 1   
    16     8    28 1   
    17     8    29 1   
    18     9    10 1   
    19     9    30 1   
    20     9    31 1   
    21    10    11 1   
    22    10    32 1   
    23    10    33 1   
    24    11    12 1   
    25    11    13 1   
    26    11    14 1   
    27    12    34 1   
    28    12    35 1   
    29    12    36 1   
    30    13    37 1   
    31    13    38 1   
    32    13    39 1   
    33    14    15 1   
    34    14    40 1   
    35    15    16 2   
    36    15    17 1   
    37    17    18 2   
    38    17    41 1   
    39    18    19 1   
    40    19    20 2   
    41    19    42 1   
    42    20    21 1   
    43    21    22 1   
    44    21    23 1   
    45    21    43 1   
    46    22    44 1   
    47    22    45 1   
    48    22    46 1   
    49    23    47 1   
    50    23    48 1   
    51    23    49 1   
@<TRIPOS>SUBSTRUCTURE
     1 1WO         1 TEMP              0 ****  ****    0 ROOT
