@<TRIPOS>MOLECULE
1WO
   49    51     1     0     0
SMALL
No Charge or Current Charge


@<TRIPOS>ATOM
      1 OAA         -3.6190     1.7990     0.0350 o          1 1WO      -0.535100
      2 CAB         -2.7730     0.9100    -0.0340 c          1 1WO       0.540500
      3 CAC         -1.3350     1.2630    -0.2400 cc         1 1WO       0.030900
      4 OAD         -1.1810     2.6060    -0.3940 oh         1 1WO      -0.520100
      5 CAE         -0.2970     0.3240    -0.2800 cd         1 1WO      -0.111200
      6 CAF          1.2170     0.6580    -0.5010 c6         1 1WO       0.040200
      7 CAG          1.4470     0.5810    -2.0440 c3         1 1WO      -0.086100
      8 CAH          1.6220     2.0800     0.0260 c6         1 1WO      -0.066400
      9 CAI          3.1440     2.3310     0.0960 c6         1 1WO      -0.073400
     10 CAJ          3.8340     1.2870     0.9900 c6         1 1WO      -0.074400
     11 CAK          3.6270    -0.1740     0.4920 c6         1 1WO      -0.020000
     12 CAL          4.4850    -0.4380    -0.7920 c3         1 1WO      -0.088100
     13 CAM          4.2240    -1.1040     1.6050 c3         1 1WO      -0.088100
     14 CAN          2.0700    -0.4430     0.3040 c6         1 1WO      -0.142700
     15 CAO          1.6600    -1.9100    -0.0650 c          1 1WO       0.573300
     16 OAP          2.4310    -2.8510    -0.1860 o          1 1WO      -0.513100
     17 CAQ          0.2120    -2.0820    -0.2770 ce         1 1WO      -0.259200
     18 CAR         -0.7140    -1.0700    -0.1780 cd         1 1WO      -0.005000
     19 CAS         -2.0910    -1.4700    -0.0360 cd         1 1WO      -0.121000
     20 CAT         -3.1000    -0.5350     0.0460 cc         1 1WO      -0.164400
     21 CAU         -4.5610    -0.9400     0.2170 c3         1 1WO      -0.006500
     22 CAW         -5.1680    -0.4840     1.5640 c3         1 1WO      -0.087100
     23 CAV         -5.4470    -0.5580    -0.9920 c3         1 1WO      -0.087100
     24 H1          -2.0860     2.9910    -0.3080 ho         1 1WO       0.490000
     25 H2           0.7000     1.1840    -2.5740 hc         1 1WO       0.041367
     26 H3           2.4200     0.9640    -2.3570 hc         1 1WO       0.041367
     27 H4           1.3550    -0.4450    -2.4210 hc         1 1WO       0.041367
     28 H5           1.2160     2.8610    -0.6280 hc         1 1WO       0.052700
     29 H6           1.1890     2.2420     1.0230 hc         1 1WO       0.052700
     30 H7           3.5840     2.3390    -0.9090 hc         1 1WO       0.041700
     31 H8           3.3250     3.3340     0.5070 hc         1 1WO       0.041700
     32 H9           4.9070     1.5170     1.0540 hc         1 1WO       0.040700
     33 H10          3.4440     1.3900     2.0130 hc         1 1WO       0.040700
     34 H11          4.3250    -1.4410    -1.2010 hc         1 1WO       0.038533
     35 H12          4.2900     0.2740    -1.5960 hc         1 1WO       0.038533
     36 H13          5.5560    -0.3530    -0.5700 hc         1 1WO       0.038533
     37 H14          3.6210    -1.0720     2.5210 hc         1 1WO       0.038533
     38 H15          4.2960    -2.1510     1.2950 hc         1 1WO       0.038533
     39 H16          5.2400    -0.7950     1.8790 hc         1 1WO       0.038533
     40 H17          1.6240    -0.3420     1.3040 hc         1 1WO       0.068700
     41 H18         -0.1390    -3.1110    -0.3070 ha         1 1WO       0.200000
     42 H19         -2.3400    -2.5270     0.0180 ha         1 1WO       0.191000
     43 H20         -4.5880    -2.0360     0.2510 hc         1 1WO       0.043700
     44 H21         -6.1540    -0.9390     1.7130 hc         1 1WO       0.041367
     45 H22         -4.5250    -0.7910     2.3980 hc         1 1WO       0.041367
     46 H23         -5.2910     0.6040     1.6080 hc         1 1WO       0.041367
     47 H24         -4.9970    -0.9160    -1.9260 hc         1 1WO       0.041367
     48 H25         -6.4390    -1.0140    -0.8990 hc         1 1WO       0.041367
     49 H26         -5.5830     0.5260    -1.0700 hc         1 1WO       0.041367
@<TRIPOS>BOND
     1     1     2 2   
     2     2     3 1   
     3     2    20 1   
     4     3     4 1   
     5     3     5 2   
     6     4    24 1   
     7     5     6 1   
     8     5    18 1   
     9     6     7 1   
    10     6     8 1   
    11     6    14 1   
    12     7    25 1   
    13     7    26 1   
    14     7    27 1   
    15     8     9 1   
    16     8    28 1   
    17     8    29 1   
    18     9    10 1   
    19     9    30 1   
    20     9    31 1   
    21    10    11 1   
    22    10    32 1   
    23    10    33 1   
    24    11    12 1   
    25    11    13 1   
    26    11    14 1   
    27    12    34 1   
    28    12    35 1   
    29    12    36 1   
    30    13    37 1   
    31    13    38 1   
    32    13    39 1   
    33    14    15 1   
    34    14    40 1   
    35    15    16 2   
    36    15    17 1   
    37    17    18 2   
    38    17    41 1   
    39    18    19 1   
    40    19    20 2   
    41    19    42 1   
    42    20    21 1   
    43    21    22 1   
    44    21    23 1   
    45    21    43 1   
    46    22    44 1   
    47    22    45 1   
    48    22    46 1   
    49    23    47 1   
    50    23    48 1   
    51    23    49 1   
@<TRIPOS>SUBSTRUCTURE
     1 1WO         1 TEMP              0 ****  ****    0 ROOT
