@<TRIPOS>MOLECULE
1WP
   41    44     1     0     0
SMALL
No Charge or Current Charge


@<TRIPOS>ATOM
      1 C1           2.5990    -0.1480    -0.4100 c5         1 1WP       0.176500
      2 C2           3.4890    -0.1270     0.8880 c5         1 1WP       0.144300
      3 C3           5.0270    -0.0400     0.6380 c6         1 1WP      -0.093400
      4 C4           5.4940    -0.9810    -0.4950 c6         1 1WP      -0.073400
      5 C5           4.7260    -0.6760    -1.8020 c6         1 1WP      -0.076400
      6 C6           3.2110    -0.9300    -1.6150 c6         1 1WP      -0.049400
      7 N7           2.4960     1.3090    -0.7060 n2         1 1WP      -0.725900
      8 C8           2.6820     1.8510     0.4270 c2         1 1WP       0.783500
      9 O9           3.0740     1.1120     1.4880 os         1 1WP      -0.465600
     10 C10          1.2470    -0.7970    -0.0080 ca         1 1WP      -0.083300
     11 C11          1.2100    -2.1070     0.5220 ca         1 1WP      -0.103000
     12 C12         -0.0060    -2.7090     0.8780 ca         1 1WP      -0.113000
     13 C13         -1.2130    -2.0180     0.7040 ca         1 1WP      -0.094000
     14 C14         -1.2280    -0.7110     0.1630 cp         1 1WP      -0.044000
     15 C15          0.0140    -0.1230    -0.1910 ca         1 1WP      -0.070000
     16 C16         -2.5160     0.0300    -0.0320 cp         1 1WP      -0.069000
     17 N17          2.6640     3.1600     0.6890 nv         1 1WP      -1.015200
     18 C18         -2.5920     1.4420     0.1180 ca         1 1WP       0.347900
     19 N19         -3.7280     2.1640    -0.0430 nb         1 1WP      -0.659000
     20 C20         -4.8590     1.4890    -0.3690 ca         1 1WP       0.346900
     21 C21         -4.8970     0.0920    -0.5420 ca         1 1WP       0.059000
     22 C22         -3.7150    -0.6470    -0.3720 ca         1 1WP      -0.064000
     23 Cl1         -6.3990    -0.7250    -0.9710 cl         1 1WP      -0.187000
     24 H1           3.2910    -0.9630     1.5710 h1         1 1WP       0.089700
     25 H2           5.3150     0.9890     0.3800 hc         1 1WP       0.051200
     26 H3           5.5610    -0.2830     1.5660 hc         1 1WP       0.051200
     27 H4           6.5730    -0.8550    -0.6600 hc         1 1WP       0.042700
     28 H5           5.3410    -2.0300    -0.2020 hc         1 1WP       0.042700
     29 H6           4.9000     0.3640    -2.1090 hc         1 1WP       0.048700
     30 H7           5.1080    -1.3090    -2.6150 hc         1 1WP       0.048700
     31 H8           3.0640    -2.0090    -1.4720 hc         1 1WP       0.053200
     32 H9           2.6690    -0.6770    -2.5370 hc         1 1WP       0.053200
     33 H11          2.1290    -2.6720     0.6580 ha         1 1WP       0.109000
     34 H12         -0.0130    -3.7160     1.2900 ha         1 1WP       0.115000
     35 H13         -2.1420    -2.4990     1.0000 ha         1 1WP       0.115000
     36 H14          0.0070     0.8690    -0.6320 ha         1 1WP       0.137000
     37 H15          2.8410     3.7020    -0.1450 hn         1 1WP       0.487000
     38 H16         -1.7070     2.0160     0.3910 h4         1 1WP       0.031100
     39 H17         -5.7600     2.0870    -0.4950 h4         1 1WP       0.034100
     40 H18         -3.7280    -1.7240    -0.5160 ha         1 1WP       0.135000
     41 H10          3.2500     3.3940     1.4780 hn         1 1WP       0.487000
@<TRIPOS>BOND
     1     1     2 1   
     2     1     6 1   
     3     1     7 1   
     4     1    10 1   
     5     2     3 1   
     6     2     9 1   
     7     2    24 1   
     8     3     4 1   
     9     3    25 1   
    10     3    26 1   
    11     4     5 1   
    12     4    27 1   
    13     4    28 1   
    14     5     6 1   
    15     5    29 1   
    16     5    30 1   
    17     6    31 1   
    18     6    32 1   
    19     7     8 2   
    20     8     9 1   
    21     8    17 1   
    22    10    11 ar  
    23    10    15 ar  
    24    11    12 ar  
    25    11    33 1   
    26    12    13 ar  
    27    12    34 1   
    28    13    14 ar  
    29    13    35 1   
    30    14    15 ar  
    31    14    16 1   
    32    15    36 1   
    33    16    18 ar  
    34    16    22 ar  
    35    17    37 1   
    36    17    41 1   
    37    18    19 ar  
    38    18    38 1   
    39    19    20 ar  
    40    20    21 ar  
    41    20    39 1   
    42    21    22 ar  
    43    21    23 1   
    44    22    40 1   
@<TRIPOS>SUBSTRUCTURE
     1 1WP         1 TEMP              0 ****  ****    0 ROOT
