@<TRIPOS>MOLECULE
1WP
   41    44     1     0     0
SMALL
bcc


@<TRIPOS>ATOM
      1 C1           2.5970    -0.1920    -0.3310 c5         1 1WP       0.176500
      2 C2           3.5610    -0.1520     0.8790 c5         1 1WP       0.121100
      3 C3           5.0430    -0.0550     0.5260 c6         1 1WP      -0.093400
      4 C4           5.4390    -1.0020    -0.5980 c6         1 1WP      -0.073400
      5 C5           4.6050    -0.6970    -1.8340 c6         1 1WP      -0.076400
      6 C6           3.1360    -0.9580    -1.5440 c6         1 1WP      -0.049400
      7 N7           2.4310     1.2310    -0.6120 n2         1 1WP      -0.725900
      8 C8           2.6790     1.8240     0.4920 c2         1 1WP       0.783500
      9 O9           3.1580     1.0800     1.5080 os         1 1WP      -0.442400
     10 C10          1.2580    -0.8150     0.0700 ca         1 1WP      -0.083300
     11 C11          1.2110    -2.0980     0.6140 ca         1 1WP      -0.121000
     12 C12         -0.0010    -2.6800     0.9530 ca         1 1WP      -0.131000
     13 C13         -1.1890    -1.9960     0.7450 ca         1 1WP      -0.112000
     14 C14         -1.1660    -0.7180     0.1920 cp         1 1WP      -0.044000
     15 C15          0.0620    -0.1430    -0.1400 ca         1 1WP      -0.088000
     16 C16         -2.4180     0.0260    -0.0390 cp         1 1WP      -0.134300
     17 N17          2.4610     3.1200     0.7850 nv         1 1WP      -0.904800
     18 C18         -2.4890     1.4040     0.1680 ca         1 1WP       0.413200
     19 N19         -3.5830     2.1230    -0.0300 nb         1 1WP      -0.659000
     20 C20         -4.6830     1.5140    -0.4440 ca         1 1WP       0.412200
     21 C21         -4.7160     0.1450    -0.6680 ca         1 1WP      -0.097900
     22 C22         -3.5780    -0.6130    -0.4690 ca         1 1WP      -0.082000
     23 CL1         -6.1760    -0.5980    -1.2120 cl         1 1WP      -0.095400
     24 H1           3.3890    -0.9610     1.5910 h1         1 1WP       0.089700
     25 H2           5.2720     0.9640     0.2020 hc         1 1WP       0.051200
     26 H3           5.6360    -0.2400     1.4250 hc         1 1WP       0.051200
     27 H4           6.5040    -0.8880    -0.8080 hc         1 1WP       0.042700
     28 H5           5.2900    -2.0450    -0.2970 hc         1 1WP       0.042700
     29 H6           4.7550     0.3460    -2.1310 hc         1 1WP       0.048700
     30 H7           4.9220    -1.3130    -2.6790 hc         1 1WP       0.048700
     31 H8           3.0050    -2.0310    -1.3770 hc         1 1WP       0.053200
     32 H9           2.5100    -0.7030    -2.4030 hc         1 1WP       0.053200
     33 H11          2.1250    -2.6560     0.7790 ha         1 1WP       0.127000
     34 H12         -0.0190    -3.6710     1.3890 ha         1 1WP       0.133000
     35 H13         -2.1280    -2.4510     1.0330 ha         1 1WP       0.133000
     36 H14          0.0890     0.8410    -0.5910 ha         1 1WP       0.155000
     37 H15          2.2200     3.7180     0.0130 hn         1 1WP       0.431800
     38 H16         -1.6180     1.9430     0.5250 h4         1 1WP       0.031100
     39 H17         -5.5650     2.1230    -0.6030 h4         1 1WP       0.034100
     40 H18         -3.5880    -1.6780    -0.6620 ha         1 1WP       0.153000
     41 H10          3.0340     3.5500     1.4930 hn         1 1WP       0.431800
@<TRIPOS>BOND
     1     1     2 1   
     2     1     6 1   
     3     1     7 1   
     4     1    10 1   
     5     2     3 1   
     6     2     9 1   
     7     2    24 1   
     8     3     4 1   
     9     3    25 1   
    10     3    26 1   
    11     4     5 1   
    12     4    27 1   
    13     4    28 1   
    14     5     6 1   
    15     5    29 1   
    16     5    30 1   
    17     6    31 1   
    18     6    32 1   
    19     7     8 2   
    20     8     9 1   
    21     8    17 1   
    22    10    11 ar  
    23    10    15 ar  
    24    11    12 ar  
    25    11    33 1   
    26    12    13 ar  
    27    12    34 1   
    28    13    14 ar  
    29    13    35 1   
    30    14    15 ar  
    31    14    16 1   
    32    15    36 1   
    33    16    18 ar  
    34    16    22 ar  
    35    17    37 1   
    36    17    41 1   
    37    18    19 ar  
    38    18    38 1   
    39    19    20 ar  
    40    20    21 ar  
    41    20    39 1   
    42    21    22 ar  
    43    21    23 1   
    44    22    40 1   
@<TRIPOS>SUBSTRUCTURE
     1 1WP         1 TEMP              0 ****  ****    0 ROOT
