@<TRIPOS>MOLECULE
1WQ
   47    50     1     0     0
SMALL
No Charge or Current Charge


@<TRIPOS>ATOM
      1 C1           7.6590    -0.1220    -0.4410 c3         1 1WQ      -0.119100
      2 C2           6.6570    -1.3100    -0.4890 c6         1 1WQ       0.091300
      3 O4           5.5630    -0.9450    -1.3780 os         1 1WQ      -0.329100
      4 C5           4.5390    -0.1650    -0.8720 ca         1 1WQ       0.082100
      5 C6           3.7240     0.5680    -1.7470 ca         1 1WQ      -0.106000
      6 C7           2.6750     1.3540    -1.2340 ca         1 1WQ      -0.086000
      7 C8           2.4310     1.4020     0.1540 ca         1 1WQ      -0.081300
      8 C9           1.2850     2.2520     0.6980 c3         1 1WQ       0.220100
      9 N10         -0.0550     1.7460     0.3170 n3         1 1WQ      -0.723600
     10 C11         -1.1490     2.6630     0.7270 c6         1 1WQ       0.172800
     11 C12         -2.4940     2.2320     0.0960 c6         1 1WQ      -0.035200
     12 C13         -2.7620     0.7310     0.2650 ce         1 1WQ      -0.061400
     13 C14         -1.7400    -0.1030     0.5720 c2         1 1WQ      -0.205200
     14 C15         -0.3120     0.3660     0.8090 c6         1 1WQ       0.199000
     15 C16         -4.1640     0.2440     0.0810 ca         1 1WQ      -0.039800
     16 C17         -4.9920     0.7950    -0.9200 ca         1 1WQ      -0.096000
     17 C18         -6.3110     0.3350    -1.0880 ca         1 1WQ      -0.103000
     18 C19         -6.8130    -0.6770    -0.2550 ca         1 1WQ       0.119000
     19 Cl          -8.4620    -1.2510    -0.4650 cl         1 1WQ      -0.204000
     20 C21         -5.9990    -1.2310     0.7450 ca         1 1WQ      -0.103000
     21 C22         -4.6800    -0.7720     0.9130 ca         1 1WQ      -0.096000
     22 C23          3.2420     0.6500     1.0290 ca         1 1WQ      -0.126000
     23 C24          4.2930    -0.1290     0.5160 ca         1 1WQ      -0.084000
     24 N25          5.0910    -0.9310     1.3570 ns         1 1WQ      -0.140000
     25 C26          6.1650    -1.6830     0.9340 c          1 1WQ       0.545000
     26 O27          6.6120    -2.6240     1.5830 o          1 1WQ      -0.533000
     27 H1           8.5340    -0.3710     0.1710 hc         1 1WQ       0.055033
     28 H2           8.0180     0.1290    -1.4460 hc         1 1WQ       0.055033
     29 H3           7.1990     0.7770    -0.0130 hc         1 1WQ       0.055033
     30 H4           7.1680    -2.1920    -0.8990 h1         1 1WQ       0.108700
     31 H5           3.9050     0.5310    -2.8180 ha         1 1WQ       0.132000
     32 H6           2.0440     1.9220    -1.9140 ha         1 1WQ       0.135000
     33 H7           1.3670     2.3110     1.7920 h1         1 1WQ       0.039200
     34 H8           1.4160     3.2740     0.3170 h1         1 1WQ       0.039200
     35 H10         -1.2480     2.6690     1.8230 h1         1 1WQ       0.033700
     36 H11         -0.9290     3.6950     0.4150 h1         1 1WQ       0.033700
     37 H12         -3.3100     2.8180     0.5380 hc         1 1WQ       0.055700
     38 H13         -2.4740     2.4750    -0.9740 hc         1 1WQ       0.055700
     39 H14         -1.9020    -1.1740     0.6820 ha         1 1WQ       0.179000
     40 H15          0.3760    -0.3430     0.3240 h1         1 1WQ       0.045700
     41 H16         -0.1100     0.3090     1.8900 h1         1 1WQ       0.045700
     42 H17         -4.6170     1.5740    -1.5790 ha         1 1WQ       0.117500
     43 H18         -6.9420     0.7620    -1.8630 ha         1 1WQ       0.129000
     44 H19         -6.3900    -2.0120     1.3920 ha         1 1WQ       0.129000
     45 H20         -4.0650    -1.2010     1.7000 ha         1 1WQ       0.117500
     46 H21          3.0500     0.6670     2.1000 ha         1 1WQ       0.116000
     47 H22          4.7450    -1.1040     2.2930 hn         1 1WQ       0.164000
@<TRIPOS>BOND
     1     1     2 1   
     2     1    27 1   
     3     1    28 1   
     4     1    29 1   
     5     2     3 1   
     6     2    25 1   
     7     2    30 1   
     8     3     4 1   
     9     4     5 ar  
    10     4    23 ar  
    11     5     6 ar  
    12     5    31 1   
    13     6     7 ar  
    14     6    32 1   
    15     7     8 1   
    16     7    22 ar  
    17     8     9 1   
    18     8    33 1   
    19     8    34 1   
    20     9    10 1   
    21     9    14 1   
    22    10    11 1   
    23    10    35 1   
    24    10    36 1   
    25    11    12 1   
    26    11    37 1   
    27    11    38 1   
    28    12    13 2   
    29    12    15 1   
    30    13    14 1   
    31    13    39 1   
    32    14    40 1   
    33    14    41 1   
    34    15    16 ar  
    35    15    21 ar  
    36    16    17 ar  
    37    16    42 1   
    38    17    18 ar  
    39    17    43 1   
    40    18    19 1   
    41    18    20 ar  
    42    20    21 ar  
    43    20    44 1   
    44    21    45 1   
    45    22    23 ar  
    46    22    46 1   
    47    23    24 1   
    48    24    25 1   
    49    24    47 1   
    50    25    26 2   
@<TRIPOS>SUBSTRUCTURE
     1 1WQ         1 TEMP              0 ****  ****    0 ROOT
