@<TRIPOS>MOLECULE
1WQ
   47    50     1     0     0
SMALL
bcc


@<TRIPOS>ATOM
      1 C1           7.3440     0.1900    -0.9430 c3         1 1WQ      -0.119100
      2 C2           6.6620    -1.1190    -0.5710 c6         1 1WQ       0.068100
      3 O4           5.3940    -1.2600    -1.1990 os         1 1WQ      -0.305900
      4 C5           4.4120    -0.4740    -0.6920 ca         1 1WQ       0.082100
      5 C6           3.4080     0.0170    -1.5090 ca         1 1WQ      -0.124000
      6 C7           2.3830     0.7750    -0.9610 ca         1 1WQ      -0.104000
      7 C8           2.3580     1.0630     0.4010 ca         1 1WQ      -0.081300
      8 C9           1.2690     1.9310     0.9780 c3         1 1WQ       0.220100
      9 N10         -0.0470     1.5260     0.5360 n3         1 1WQ      -0.723600
     10 C11         -1.0630     2.5190     0.8190 c6         1 1WQ       0.172800
     11 C12         -2.3480     2.1780     0.0840 c6         1 1WQ      -0.035200
     12 C13         -2.7430     0.7450     0.3160 ce         1 1WQ      -0.061400
     13 C14         -1.8380    -0.1220     0.7770 c2         1 1WQ      -0.155200
     14 C15         -0.4170     0.2320     1.0660 c6         1 1WQ       0.199000
     15 C16         -4.1290     0.3430     0.0100 ca         1 1WQ      -0.039800
     16 C17         -4.8600     1.0110    -0.9750 ca         1 1WQ      -0.114000
     17 C18         -6.1570     0.6380    -1.2940 ca         1 1WQ      -0.121000
     18 C19         -6.7450    -0.4140    -0.6130 ca         1 1WQ       0.027400
     19 CL          -8.3680    -0.8860    -0.9990 cl         1 1WQ      -0.112400
     20 C21         -6.0540    -1.0880     0.3830 ca         1 1WQ      -0.121000
     21 C22         -4.7600    -0.7040     0.6880 ca         1 1WQ      -0.114000
     22 C23          3.3710     0.5680     1.2110 ca         1 1WQ      -0.144000
     23 C24          4.3950    -0.2000     0.6710 ca         1 1WQ       0.008600
     24 N25          5.4070    -0.7470     1.4590 ns         1 1WQ      -0.466100
     25 C26          6.5520    -1.2450     0.9410 c          1 1WQ       0.687500
     26 O27          7.4490    -1.7090     1.6190 o          1 1WQ      -0.608500
     27 H1           8.3510     0.2160    -0.5280 hc         1 1WQ       0.055033
     28 H2           7.4250     0.2720    -2.0260 hc         1 1WQ       0.055033
     29 H3           6.8010     1.0590    -0.5690 hc         1 1WQ       0.055033
     30 H4           7.2580    -1.9590    -0.9300 h1         1 1WQ       0.108700
     31 H5           3.4260    -0.2040    -2.5680 ha         1 1WQ       0.150000
     32 H6           1.5920     1.1480    -1.5990 ha         1 1WQ       0.153000
     33 H7           1.3550     1.9410     2.0780 h1         1 1WQ       0.039200
     34 H8           1.4290     2.9620     0.6490 h1         1 1WQ       0.039200
     35 H10         -1.2670     2.6060     1.9000 h1         1 1WQ       0.033700
     36 H11         -0.7030     3.4950     0.4880 h1         1 1WQ       0.033700
     37 H12         -3.1440     2.8470     0.4210 hc         1 1WQ       0.055700
     38 H13         -2.2200     2.3690    -0.9870 hc         1 1WQ       0.055700
     39 H14         -2.1030    -1.1600     0.9510 ha         1 1WQ       0.129000
     40 H15          0.2310    -0.5360     0.6340 h1         1 1WQ       0.045700
     41 H16         -0.2570     0.1730     2.1600 h1         1 1WQ       0.045700
     42 H17         -4.4150     1.8320    -1.5230 ha         1 1WQ       0.135500
     43 H18         -6.7000     1.1660    -2.0680 ha         1 1WQ       0.147000
     44 H19         -6.5230    -1.8980     0.9260 ha         1 1WQ       0.147000
     45 H20         -4.2420    -1.2220     1.4850 ha         1 1WQ       0.135500
     46 H21          3.3660     0.7720     2.2760 ha         1 1WQ       0.134000
     47 H22          5.3050    -0.7320     2.4650 hn         1 1WQ       0.330500
@<TRIPOS>BOND
     1     1     2 1   
     2     1    27 1   
     3     1    28 1   
     4     1    29 1   
     5     2     3 1   
     6     2    25 1   
     7     2    30 1   
     8     3     4 1   
     9     4     5 ar  
    10     4    23 ar  
    11     5     6 ar  
    12     5    31 1   
    13     6     7 ar  
    14     6    32 1   
    15     7     8 1   
    16     7    22 ar  
    17     8     9 1   
    18     8    33 1   
    19     8    34 1   
    20     9    10 1   
    21     9    14 1   
    22    10    11 1   
    23    10    35 1   
    24    10    36 1   
    25    11    12 1   
    26    11    37 1   
    27    11    38 1   
    28    12    13 2   
    29    12    15 1   
    30    13    14 1   
    31    13    39 1   
    32    14    40 1   
    33    14    41 1   
    34    15    16 ar  
    35    15    21 ar  
    36    16    17 ar  
    37    16    42 1   
    38    17    18 ar  
    39    17    43 1   
    40    18    19 1   
    41    18    20 ar  
    42    20    21 ar  
    43    20    44 1   
    44    21    45 1   
    45    22    23 ar  
    46    22    46 1   
    47    23    24 1   
    48    24    25 1   
    49    24    47 1   
    50    25    26 2   
@<TRIPOS>SUBSTRUCTURE
     1 1WQ         1 TEMP              0 ****  ****    0 ROOT
