@<TRIPOS>MOLECULE
1WR
   49    51     1     0     0
SMALL
bcc


@<TRIPOS>ATOM
      1 C4          -5.5870    -1.1630    28.8930 c6         1 1WR      -0.190700
      2 C5          -7.0480    -1.5290    28.6570 c6         1 1WR       0.191800
      3 C6          -5.2570    -1.3170    30.3750 c6         1 1WR      -0.053400
      4 C7          -5.6510    -2.6970    30.8840 c6         1 1WR      -0.078400
      5 C8          -7.1070    -2.9990    30.5660 c6         1 1WR       0.185800
      6 C10         -9.9090    -2.8530    29.3420 c3         1 1WR      -0.087200
      7 C11         -5.2430     0.2390    28.3350 c          1 1WR       0.932600
      8 C12        -10.2130    -1.4550    28.9210 c2         1 1WR      -0.125200
      9 C13        -10.3420    -0.3670    29.6920 ce         1 1WR      -0.023400
     10 C14        -10.2580    -0.4190    31.1710 ca         1 1WR      -0.044300
     11 C15        -10.4990     0.9720    29.0810 ca         1 1WR      -0.044300
     12 C16         -9.2990     0.3480    31.8350 ca         1 1WR      -0.111000
     13 C17        -11.3950     1.9000    29.6170 ca         1 1WR      -0.111000
     14 C18        -11.1090    -1.2230    31.9280 ca         1 1WR      -0.111000
     15 C19         -9.7540     1.3430    27.9590 ca         1 1WR      -0.111000
     16 C20         -9.1800     0.2960    33.2160 ca         1 1WR      -0.135500
     17 C21        -11.5680     3.1440    29.0290 ca         1 1WR      -0.135500
     18 C22        -10.9940    -1.2720    33.3110 ca         1 1WR      -0.135500
     19 C23         -9.9240     2.5890    27.3720 ca         1 1WR      -0.135500
     20 C24        -10.0270    -0.5170    33.9600 ca         1 1WR      -0.138000
     21 C25        -10.8350     3.4930    27.9010 ca         1 1WR      -0.138000
     22 N3          -7.3520    -2.8640    29.1460 n3         1 1WR      -0.749600
     23 O1          -4.2680     0.8260    28.8460 o          1 1WR      -0.843800
     24 O2          -5.9480     0.6670    27.3970 o          1 1WR      -0.843800
     25 H1          -4.9730    -1.8880    28.3390 hc         1 1WR       0.037700
     26 H2          -7.6770    -0.7630    29.1370 h1         1 1WR       0.034700
     27 H3          -7.2760    -1.4950    27.5910 h1         1 1WR       0.034700
     28 H4          -4.1960    -1.1350    30.5510 hc         1 1WR       0.039700
     29 H5          -5.8030    -0.5560    30.9470 hc         1 1WR       0.039700
     30 H6          -5.0170    -3.4580    30.4160 hc         1 1WR       0.023200
     31 H7          -5.4920    -2.7700    31.9630 hc         1 1WR       0.023200
     32 H8          -7.7460    -2.3250    31.1650 h1         1 1WR       0.011200
     33 H9          -7.3550    -4.0190    30.8720 h1         1 1WR       0.011200
     34 H10         -8.6770    -3.3010    27.6230 h1         1 1WR       0.035200
     35 H11         -8.6020    -4.4870    28.9120 h1         1 1WR       0.035200
     36 H12        -10.7230    -3.5060    29.0090 hc         1 1WR       0.040700
     37 H13         -9.8680    -2.9500    30.4270 hc         1 1WR       0.040700
     38 H14        -10.2900    -1.3150    27.8450 ha         1 1WR       0.122000
     39 H15         -8.6340     0.9850    31.2640 ha         1 1WR       0.143750
     40 H16        -11.9710     1.6400    30.4970 ha         1 1WR       0.143750
     41 H17        -11.8710    -1.8100    31.4310 ha         1 1WR       0.143750
     42 H18         -9.0170     0.6610    27.5540 ha         1 1WR       0.143750
     43 H19         -8.4230     0.8890    33.7130 ha         1 1WR       0.125500
     44 H20        -12.2780     3.8430    29.4530 ha         1 1WR       0.125500
     45 H21        -11.6660    -1.9010    33.8830 ha         1 1WR       0.125500
     46 H22         -9.3320     2.8590    26.5070 ha         1 1WR       0.125500
     47 H23         -9.9370    -0.5560    35.0380 ha         1 1WR       0.118000
     48 H24        -10.9670     4.4660    27.4450 ha         1 1WR       0.118000
     49 C9          -8.6160    -3.4100    28.7110 c3         1 1WR       0.197800
@<TRIPOS>BOND
     1     1     2 1   
     2     1     3 1   
     3     1     7 1   
     4     1    25 1   
     5     2    22 1   
     6     2    26 1   
     7     2    27 1   
     8     3     4 1   
     9     3    28 1   
    10     3    29 1   
    11     4     5 1   
    12     4    30 1   
    13     4    31 1   
    14     5    22 1   
    15     5    32 1   
    16     5    33 1   
    17     6     8 1   
    18     6    36 1   
    19     6    37 1   
    20     6    49 1   
    21     7    23 1   
    22     7    24 1   
    23     8     9 2   
    24     8    38 1   
    25     9    10 1   
    26     9    11 1   
    27    10    12 ar  
    28    10    14 ar  
    29    11    13 ar  
    30    11    15 ar  
    31    12    16 ar  
    32    12    39 1   
    33    13    17 ar  
    34    13    40 1   
    35    14    18 ar  
    36    14    41 1   
    37    15    19 ar  
    38    15    42 1   
    39    16    20 ar  
    40    16    43 1   
    41    17    21 ar  
    42    17    44 1   
    43    18    20 ar  
    44    18    45 1   
    45    19    21 ar  
    46    19    46 1   
    47    20    47 1   
    48    21    48 1   
    49    22    49 1   
    50    34    49 1   
    51    35    49 1   
@<TRIPOS>SUBSTRUCTURE
     1 1WR         1 TEMP              0 ****  ****    0 ROOT
