@<TRIPOS>MOLECULE
1WR
   49    51     1     0     0
SMALL
No Charge or Current Charge


@<TRIPOS>ATOM
      1 C4          -5.5790    -1.1090    29.2410 c6         1 1WR      -0.190700
      2 C5          -6.9950    -1.5250    28.7800 c6         1 1WR       0.191800
      3 C6          -5.4420    -1.2490    30.7820 c6         1 1WR      -0.053400
      4 C7          -5.8290    -2.6790    31.2250 c6         1 1WR      -0.078400
      5 C8          -7.2290    -3.0690    30.6920 c6         1 1WR       0.185800
      6 C10         -9.9190    -2.9220    29.1300 c3         1 1WR      -0.087200
      7 C11         -5.2360     0.3060    28.7380 c          1 1WR       0.722000
      8 C12        -10.2210    -1.4900    28.7080 c2         1 1WR      -0.175200
      9 C13        -10.2980    -0.3860    29.4940 ce         1 1WR      -0.023400
     10 C14        -10.0970    -0.4370    30.9710 ca         1 1WR      -0.044300
     11 C15        -10.5550     0.9690    28.9140 ca         1 1WR      -0.044300
     12 C16         -9.0360     0.2800    31.5580 ca         1 1WR      -0.093000
     13 C17        -11.3420     1.9060    29.6180 ca         1 1WR      -0.093000
     14 C18        -10.9690    -1.1770    31.7940 ca         1 1WR      -0.093000
     15 C19        -10.0070     1.3380    27.6670 ca         1 1WR      -0.093000
     16 C20         -8.8340     0.2390    32.9480 ca         1 1WR      -0.117500
     17 C21        -11.5840     3.1820    29.0810 ca         1 1WR      -0.117500
     18 C22        -10.7690    -1.2170    33.1850 ca         1 1WR      -0.117500
     19 C23        -10.2490     2.6150    27.1310 ca         1 1WR      -0.117500
     20 C24         -9.6990    -0.5120    33.7620 ca         1 1WR      -0.120000
     21 C25        -11.0390     3.5370    27.8360 ca         1 1WR      -0.120000
     22 N3          -7.3160    -2.9160    29.2130 n3         1 1WR      -0.749600
     23 O1          -4.2970     0.4260    27.9640 o          1 1WR      -0.738500
     24 O2          -5.9000     1.2490    29.1420 o          1 1WR      -0.738500
     25 H1          -4.8630    -1.7980    28.7730 hc         1 1WR       0.037700
     26 H2          -7.7190    -0.8130    29.1950 h1         1 1WR       0.034700
     27 H3          -7.0500    -1.4440    27.6840 h1         1 1WR       0.034700
     28 H4          -4.4140    -1.0230    31.0930 hc         1 1WR       0.039700
     29 H5          -6.0920    -0.5220    31.2870 hc         1 1WR       0.039700
     30 H6          -5.0820    -3.3960    30.8580 hc         1 1WR       0.023200
     31 H7          -5.8160    -2.7470    32.3210 hc         1 1WR       0.023200
     32 H8          -7.9800    -2.4360    31.1860 h1         1 1WR       0.011200
     33 H9          -7.4400    -4.1090    30.9800 h1         1 1WR       0.011200
     34 H10         -8.5310    -3.3620    27.5270 h1         1 1WR       0.035200
     35 H11         -8.5690    -4.5620    28.8060 h1         1 1WR       0.035200
     36 H12        -10.7080    -3.5690    28.7300 hc         1 1WR       0.040700
     37 H13         -9.9720    -3.0500    30.2150 hc         1 1WR       0.040700
     38 H14        -10.3830    -1.3960    27.6340 ha         1 1WR       0.172000
     39 H15         -8.3630     0.8610    30.9320 ha         1 1WR       0.125750
     40 H16        -11.7740     1.6430    30.5800 ha         1 1WR       0.125750
     41 H17        -11.8000    -1.7210    31.3510 ha         1 1WR       0.125750
     42 H18         -9.3790     0.6420    27.1150 ha         1 1WR       0.125750
     43 H19         -8.0080     0.7880    33.3940 ha         1 1WR       0.107500
     44 H20        -12.1950     3.8950    29.6300 ha         1 1WR       0.107500
     45 H21        -11.4430    -1.7940    33.8140 ha         1 1WR       0.107500
     46 H22         -9.8210     2.8900    26.1690 ha         1 1WR       0.107500
     47 H23         -9.5440    -0.5440    34.8380 ha         1 1WR       0.100000
     48 H24        -11.2260     4.5250    27.4210 ha         1 1WR       0.100000
     49 C9          -8.5610    -3.4800    28.6190 c3         1 1WR       0.197800
@<TRIPOS>BOND
     1     1     2 1   
     2     1     3 1   
     3     1     7 1   
     4     1    25 1   
     5     2    22 1   
     6     2    26 1   
     7     2    27 1   
     8     3     4 1   
     9     3    28 1   
    10     3    29 1   
    11     4     5 1   
    12     4    30 1   
    13     4    31 1   
    14     5    22 1   
    15     5    32 1   
    16     5    33 1   
    17     6     8 1   
    18     6    36 1   
    19     6    37 1   
    20     6    49 1   
    21     7    23 1   
    22     7    24 1   
    23     8     9 2   
    24     8    38 1   
    25     9    10 1   
    26     9    11 1   
    27    10    12 ar  
    28    10    14 ar  
    29    11    13 ar  
    30    11    15 ar  
    31    12    16 ar  
    32    12    39 1   
    33    13    17 ar  
    34    13    40 1   
    35    14    18 ar  
    36    14    41 1   
    37    15    19 ar  
    38    15    42 1   
    39    16    20 ar  
    40    16    43 1   
    41    17    21 ar  
    42    17    44 1   
    43    18    20 ar  
    44    18    45 1   
    45    19    21 ar  
    46    19    46 1   
    47    20    47 1   
    48    21    48 1   
    49    22    49 1   
    50    34    49 1   
    51    35    49 1   
@<TRIPOS>SUBSTRUCTURE
     1 1WR         1 TEMP              0 ****  ****    0 ROOT
