@<TRIPOS>MOLECULE
1WS
   47    50     1     0     0
SMALL
No Charge or Current Charge


@<TRIPOS>ATOM
      1 O23          4.2780    -1.9340    -0.0950 o          1 1WS      -0.610100
      2 C21          3.7780    -0.8160    -0.0150 c          1 1WS       0.531600
      3 N22          4.5630     0.3190    -0.0840 ns         1 1WS      -0.496900
      4 C24          6.0150     0.3210    -0.2520 c3         1 1WS       0.107000
      5 C25          6.5860     1.7510    -0.2650 c3         1 1WS      -0.098400
      6 C26          8.1170     1.7720    -0.4410 c3         1 1WS       0.151800
      7 N27          8.6370     3.1510    -0.4570 n8         1 1WS      -0.996200
      8 C8           2.3090    -0.5120     0.1580 cc         1 1WS       0.210500
      9 C7           1.3060    -1.5150     0.2480 cc         1 1WS      -0.137300
     10 C4           1.4480    -3.0260     0.1240 c6         1 1WS       0.008900
     11 C3           0.1430    -3.8000     0.5270 c6         1 1WS      -0.109700
     12 N9           1.7990     0.7260     0.2210 nd         1 1WS      -0.526800
     13 N10          0.4200     0.5110     0.3350 na         1 1WS       0.022800
     14 C6           0.1380    -0.8490     0.3660 cd         1 1WS      -0.062000
     15 C1          -1.0910    -1.5640     0.4200 cd         1 1WS      -0.169000
     16 C11         -2.3640    -1.0910     0.4480 cc         1 1WS       0.248000
     17 N12         -3.1200    -2.2640     0.4410 na         1 1WS      -0.023200
     18 N5          -2.3550    -3.4380     0.4540 nc         1 1WS      -0.498800
     19 C2          -1.1220    -2.9630     0.4370 cd         1 1WS       0.289300
     20 N13         -2.8720     0.1910     0.4780 nu         1 1WS      -0.996000
     21 C14         -4.0420     0.7400    -0.0380 ca         1 1WS       0.346000
     22 C19         -4.5780     1.8870     0.5590 ca         1 1WS      -0.229000
     23 C18         -5.7540     2.4530     0.0490 ca         1 1WS       0.215000
     24 F20         -6.2720     3.5560     0.6300 f          1 1WS      -0.176000
     25 C17         -6.3970     1.8830    -1.0590 ca         1 1WS      -0.189000
     26 C16         -5.8570     0.7370    -1.6670 ca         1 1WS      -0.042000
     27 C15         -4.6770     0.1700    -1.1540 ca         1 1WS      -0.193000
     28 H22          4.0700     1.2030    -0.0120 hn         1 1WS       0.332500
     29 H241         6.4670    -0.2490     0.5720 h1         1 1WS       0.049200
     30 H242         6.2630    -0.1840    -1.1960 h1         1 1WS       0.049200
     31 H251         6.1190     2.3160    -1.0810 hc         1 1WS       0.051700
     32 H252         6.3200     2.2520     0.6740 hc         1 1WS       0.051700
     33 H261         8.5930     1.2230     0.3840 h1         1 1WS       0.030700
     34 H262         8.3870     1.2820    -1.3870 h1         1 1WS       0.030700
     35 H271         8.4630     3.5850     0.4570 hn         1 1WS       0.393000
     36 H272         9.6630     3.1210    -0.5170 hn         1 1WS       0.393000
     37 H41C         1.7020    -3.2780    -0.9150 hc         1 1WS       0.067200
     38 H42C         2.2810    -3.3990     0.7350 hc         1 1WS       0.067200
     39 H31C         0.0480    -4.7070    -0.0840 hc         1 1WS       0.063200
     40 H32C         0.2500    -4.1490     1.5620 hc         1 1WS       0.063200
     41 H10         -0.2480     1.2770     0.3650 hn         1 1WS       0.372000
     42 H12         -4.1340    -2.2940     0.4570 hn         1 1WS       0.380000
     43 H13         -2.3850     0.8030     1.1330 hn         1 1WS       0.507000
     44 H19         -4.0940     2.3390     1.4190 ha         1 1WS       0.130000
     45 H15         -4.2520    -0.7050    -1.6360 ha         1 1WS       0.129000
     46 H17         -7.3080     2.3310    -1.4470 ha         1 1WS       0.138000
     47 H16         -6.3460     0.2940    -2.5330 ha         1 1WS       0.121000
@<TRIPOS>BOND
     1     1     2 2   
     2     2     3 1   
     3     2     8 1   
     4     3     4 1   
     5     3    28 1   
     6     4     5 1   
     7     4    29 1   
     8     4    30 1   
     9     5     6 1   
    10     5    31 1   
    11     5    32 1   
    12     6     7 1   
    13     6    33 1   
    14     6    34 1   
    15     7    35 1   
    16     7    36 1   
    17     8     9 1   
    18     8    12 2   
    19     9    10 1   
    20     9    14 2   
    21    10    11 1   
    22    10    37 1   
    23    10    38 1   
    24    11    19 1   
    25    11    39 1   
    26    11    40 1   
    27    12    13 1   
    28    13    14 1   
    29    13    41 1   
    30    14    15 1   
    31    15    16 2   
    32    15    19 1   
    33    16    17 1   
    34    16    20 1   
    35    17    18 1   
    36    17    42 1   
    37    18    19 2   
    38    20    21 1   
    39    20    43 1   
    40    21    22 ar  
    41    21    27 ar  
    42    22    23 ar  
    43    22    44 1   
    44    23    24 1   
    45    23    25 ar  
    46    25    26 ar  
    47    25    46 1   
    48    26    27 ar  
    49    26    47 1   
    50    27    45 1   
@<TRIPOS>SUBSTRUCTURE
     1 1WS         1 TEMP              0 ****  ****    0 ROOT
