@<TRIPOS>MOLECULE
1WS
   47    50     1     0     0
SMALL
bcc


@<TRIPOS>ATOM
      1 O23          4.1630    -1.7840    -0.6550 o          1 1WS      -0.610100
      2 C21          3.7360    -0.6970    -0.2810 c          1 1WS       0.598600
      3 N22          4.5040     0.3940    -0.1660 ns         1 1WS      -0.563900
      4 C24          5.9160     0.3930    -0.4830 c3         1 1WS       0.107000
      5 C25          6.5350     1.7460    -0.1740 c3         1 1WS      -0.098400
      6 C26          8.0280     1.7580    -0.4640 c3         1 1WS       0.151800
      7 N27          8.5990     3.0620    -0.1610 n8         1 1WS      -0.885800
      8 C8           2.3120    -0.5180     0.0770 cc         1 1WS       0.275800
      9 C7           1.3060    -1.5010     0.1200 cc         1 1WS      -0.202600
     10 C4           1.2490    -2.9630    -0.2050 c6         1 1WS       0.008900
     11 C3           0.1290    -3.6720     0.5790 c6         1 1WS      -0.109700
     12 N9           1.8350     0.6770     0.4080 nd         1 1WS      -0.526800
     13 N10          0.5510     0.4860     0.6560 na         1 1WS       0.022400
     14 C6           0.1790    -0.7970     0.4980 cd         1 1WS      -0.011300
     15 C1          -1.0920    -1.4440     0.6490 cd         1 1WS      -0.234300
     16 C11         -2.4130    -1.0620     0.7550 cc         1 1WS       0.160300
     17 N12         -3.1180    -2.2140     0.7880 na         1 1WS      -0.023600
     18 N5          -2.3530    -3.3060     0.6900 nc         1 1WS      -0.498800
     19 C2          -1.1210    -2.8540     0.6230 cd         1 1WS       0.354600
     20 N13         -2.9740     0.1920     0.8570 nu         1 1WS      -0.664000
     21 C14         -4.0230     0.6740     0.0980 ca         1 1WS       0.207600
     22 C19         -4.6220     1.8760     0.4840 ca         1 1WS      -0.247000
     23 C18         -5.6500     2.3850    -0.2800 ca         1 1WS       0.179900
     24 F20         -6.2080     3.5450     0.1050 f          1 1WS      -0.140900
     25 C17         -6.1320     1.7580    -1.4130 ca         1 1WS      -0.207000
     26 C16         -5.5270     0.5640    -1.7810 ca         1 1WS      -0.060000
     27 C15         -4.4840     0.0190    -1.0490 ca         1 1WS      -0.211000
     28 H22          4.0730     1.2540     0.1350 hn         1 1WS       0.332500
     29 H241         6.4220    -0.3870     0.0930 h1         1 1WS       0.049200
     30 H242         6.0630     0.1500    -1.5400 h1         1 1WS       0.049200
     31 H251         6.0470     2.5260    -0.7630 hc         1 1WS       0.051700
     32 H252         6.3690     1.9900     0.8800 hc         1 1WS       0.051700
     33 H261         8.5030     0.9320     0.0850 h1         1 1WS       0.030700
     34 H262         8.1880     1.5520    -1.5260 h1         1 1WS       0.030700
     35 H271         8.5590     3.2180     0.8390 hn         1 1WS       0.337800
     36 H272         9.5840     3.0600    -0.3940 hn         1 1WS       0.337800
     37 H41C         1.0750    -3.0830    -1.2790 hc         1 1WS       0.067200
     38 H42C         2.1990    -3.4480     0.0090 hc         1 1WS       0.067200
     39 H31C        -0.0640    -4.6570     0.1510 hc         1 1WS       0.063200
     40 H32C         0.4680    -3.8370     1.6070 hc         1 1WS       0.063200
     41 H10         -0.0210     1.2680     0.9350 hn         1 1WS       0.321700
     42 H12         -4.1190    -2.3110     0.8660 hn         1 1WS       0.329700
     43 H13         -2.6430     0.7750     1.6100 hn         1 1WS       0.451800
     44 H19         -4.2870     2.4050     1.3670 ha         1 1WS       0.148000
     45 H15         -4.0280    -0.9030    -1.3820 ha         1 1WS       0.147000
     46 H17         -6.9430     2.1860    -1.9860 ha         1 1WS       0.156000
     47 H16         -5.8730     0.0460    -2.6660 ha         1 1WS       0.139000
@<TRIPOS>BOND
     1     1     2 2   
     2     2     3 1   
     3     2     8 1   
     4     3     4 1   
     5     3    28 1   
     6     4     5 1   
     7     4    29 1   
     8     4    30 1   
     9     5     6 1   
    10     5    31 1   
    11     5    32 1   
    12     6     7 1   
    13     6    33 1   
    14     6    34 1   
    15     7    35 1   
    16     7    36 1   
    17     8     9 1   
    18     8    12 2   
    19     9    10 1   
    20     9    14 2   
    21    10    11 1   
    22    10    37 1   
    23    10    38 1   
    24    11    19 1   
    25    11    39 1   
    26    11    40 1   
    27    12    13 1   
    28    13    14 1   
    29    13    41 1   
    30    14    15 1   
    31    15    16 2   
    32    15    19 1   
    33    16    17 1   
    34    16    20 1   
    35    17    18 1   
    36    17    42 1   
    37    18    19 2   
    38    20    21 1   
    39    20    43 1   
    40    21    22 ar  
    41    21    27 ar  
    42    22    23 ar  
    43    22    44 1   
    44    23    24 1   
    45    23    25 ar  
    46    25    26 ar  
    47    25    46 1   
    48    26    27 ar  
    49    26    47 1   
    50    27    45 1   
@<TRIPOS>SUBSTRUCTURE
     1 1WS         1 TEMP              0 ****  ****    0 ROOT
