@<TRIPOS>MOLECULE
1WV
   53    52     1     0     0
SMALL
bcc


@<TRIPOS>ATOM
      1 C10         -1.1070    -1.9930    -0.0630 c3         1 1WV      -0.072400
      2 C13          2.4520    -0.4570    -0.3370 c3         1 1WV      -0.137400
      3 C17          6.0660    -0.0920     0.2780 c3         1 1WV       0.105400
      4 C20          8.3660     0.8030     0.0590 c3         1 1WV       0.105400
      5 C07         -4.6630    -2.3370     0.3580 c2         1 1WV      -0.164200
      6 C08         -3.5340    -2.6020    -0.2990 c2         1 1WV      -0.166200
      7 C09         -2.4560    -1.6400    -0.6910 c3         1 1WV      -0.043200
      8 C11          0.0090    -1.0520    -0.4990 c3         1 1WV      -0.077400
      9 C12          1.3570    -1.4110     0.1120 c3         1 1WV      -0.068400
     10 C14          3.8100    -0.7880     0.2220 c          1 1WV       0.641100
     11 O15          4.0640    -1.7370     0.9200 o          1 1WV      -0.539000
     12 O16          4.7210     0.1030    -0.1570 os         1 1WV      -0.411900
     13 C18          6.9050     1.0370    -0.2970 c3         1 1WV       0.142100
     14 O19          6.4450     2.3010     0.1120 oh         1 1WV      -0.563800
     15 H1          -1.2010    -1.9710     1.0280 hc         1 1WV       0.042200
     16 H2           2.5310    -0.4520    -1.4290 hc         1 1WV       0.073700
     17 H3           6.1140    -0.0880     1.3710 h1         1 1WV       0.050700
     18 H4           6.4400    -1.0570    -0.0710 h1         1 1WV       0.050700
     19 H5           8.4750     0.8120     1.1530 h1         1 1WV       0.021200
     20 H6           8.6540    -0.2010    -0.2780 h1         1 1WV       0.021200
     21 H8          -5.3360    -3.1690     0.5530 ha         1 1WV       0.115000
     22 H10         -3.3500    -3.6350    -0.5840 ha         1 1WV       0.115000
     23 H12         -2.7230    -0.6150    -0.4270 hc         1 1WV       0.044700
     24 H13         -2.3470    -1.6570    -1.7810 hc         1 1WV       0.044700
     25 H14          0.0880    -1.0680    -1.5920 hc         1 1WV       0.038200
     26 H15          1.6200    -2.4350    -0.1650 hc         1 1WV       0.054200
     27 H16          6.8090     1.0220    -1.3880 h1         1 1WV       0.097700
     28 H17          6.5690     2.3850     1.0640 ho         1 1WV       0.397000
     29 H18         10.0630     1.6510    -0.3070 ho         1 1WV       0.406000
     30 C1          -5.1510    -1.0060     0.8390 c3         1 1WV      -0.043200
     31 C2          -6.3650    -0.5160     0.0460 c3         1 1WV      -0.072400
     32 C3          -6.9130     0.8080     0.5610 c3         1 1WV      -0.075400
     33 C4          -8.1110     1.3140    -0.2330 c3         1 1WV      -0.075400
     34 C5          -8.6570     2.6400     0.2830 c3         1 1WV      -0.075400
     35 C6          -9.8450     3.1480    -0.5230 c3         1 1WV      -0.088100
     36 H7          -0.8420    -3.0230    -0.3260 hc         1 1WV       0.042200
     37 H9           2.2060     0.5720    -0.0580 hc         1 1WV       0.073700
     38 H11         -0.2550    -0.0250    -0.2280 hc         1 1WV       0.038200
     39 H19          1.2770    -1.3950     1.2020 hc         1 1WV       0.054200
     40 H20         -5.4340    -1.0920     1.8930 hc         1 1WV       0.043700
     41 H21         -4.3620    -0.2530     0.7940 hc         1 1WV       0.043700
     42 H22         -6.0850    -0.4140    -1.0070 hc         1 1WV       0.039700
     43 H23         -7.1530    -1.2770     0.0790 hc         1 1WV       0.039700
     44 H24         -7.1950     0.6980     1.6140 hc         1 1WV       0.036700
     45 H25         -6.1190     1.5620     0.5390 hc         1 1WV       0.036700
     46 H26         -7.8280     1.4230    -1.2860 hc         1 1WV       0.037700
     47 H27         -8.9070     0.5610    -0.2100 hc         1 1WV       0.037700
     48 H28         -8.9490     2.5280     1.3320 hc         1 1WV       0.036700
     49 H29         -7.8590     3.3890     0.2690 hc         1 1WV       0.036700
     50 H30        -10.2280     4.0870    -0.1230 hc         1 1WV       0.031367
     51 H31         -9.5700     3.3210    -1.5650 hc         1 1WV       0.031367
     52 H32        -10.6640     2.4260    -0.5170 hc         1 1WV       0.031367
     53 O21          9.1450     1.8010    -0.5510 oh         1 1WV      -0.579800
@<TRIPOS>BOND
     1     1     7 1   
     2     1     8 1   
     3     1    15 1   
     4     1    36 1   
     5     2     9 1   
     6     2    10 1   
     7     2    16 1   
     8     2    37 1   
     9     3    12 1   
    10     3    13 1   
    11     3    17 1   
    12     3    18 1   
    13     4    13 1   
    14     4    19 1   
    15     4    20 1   
    16     4    53 1   
    17     5     6 2   
    18     5    21 1   
    19     5    30 1   
    20     6     7 1   
    21     6    22 1   
    22     7    23 1   
    23     7    24 1   
    24     8     9 1   
    25     8    25 1   
    26     8    38 1   
    27     9    26 1   
    28     9    39 1   
    29    10    11 2   
    30    10    12 1   
    31    13    14 1   
    32    13    27 1   
    33    14    28 1   
    34    29    53 1   
    35    30    31 1   
    36    30    40 1   
    37    30    41 1   
    38    31    32 1   
    39    31    42 1   
    40    31    43 1   
    41    32    33 1   
    42    32    44 1   
    43    32    45 1   
    44    33    34 1   
    45    33    46 1   
    46    33    47 1   
    47    34    35 1   
    48    34    48 1   
    49    34    49 1   
    50    35    50 1   
    51    35    51 1   
    52    35    52 1   
@<TRIPOS>SUBSTRUCTURE
     1 1WV         1 TEMP              0 ****  ****    0 ROOT
