@<TRIPOS>MOLECULE
1WV
   53    52     1     0     0
SMALL
No Charge or Current Charge


@<TRIPOS>ATOM
      1 C10         -1.0560    -1.3550    -0.5220 c3         1 1WV      -0.072400
      2 C13          1.9350     1.2240    -0.2420 c3         1 1WV      -0.137400
      3 C17          5.5220     0.6230     0.7020 c3         1 1WV       0.128600
      4 C20          7.9210    -0.2880     0.5360 c3         1 1WV       0.128600
      5 C07         -4.2200    -2.7310    -0.2390 c2         1 1WV      -0.214200
      6 C08         -3.1630    -2.6610    -1.0680 c2         1 1WV      -0.216200
      7 C09         -2.3340    -1.4290    -1.3820 c3         1 1WV      -0.043200
      8 C11         -0.1990    -0.1040    -0.8150 c3         1 1WV      -0.077400
      9 C12          1.0780    -0.0310     0.0500 c3         1 1WV      -0.068400
     10 C14          3.1940     1.2540     0.6280 c          1 1WV       0.592100
     11 O15          3.2180     1.6950     1.7700 o          1 1WV      -0.490000
     12 O16          4.2660     0.6840    -0.0070 os         1 1WV      -0.435100
     13 C18          6.5870    -0.0340    -0.2140 c3         1 1WV       0.165300
     14 O19          6.8570     0.7970    -1.3600 oh         1 1WV      -0.626000
     15 H1          -1.3390    -1.3590     0.5380 hc         1 1WV       0.042200
     16 H2           2.2320     1.1840    -1.2970 hc         1 1WV       0.073700
     17 H3           5.8590     1.6270     0.9910 h1         1 1WV       0.050700
     18 H4           5.4150     0.0230     1.6160 h1         1 1WV       0.050700
     19 H5           8.2860     0.6560     0.9620 h1         1 1WV       0.021200
     20 H6           7.7370    -0.9810     1.3680 h1         1 1WV       0.021200
     21 H8          -4.7390    -3.6820    -0.1090 ha         1 1WV       0.165000
     22 H10         -2.8420    -3.5550    -1.6060 ha         1 1WV       0.165000
     23 H12         -2.9220    -0.5170    -1.2280 hc         1 1WV       0.044700
     24 H13         -2.0570    -1.4330    -2.4440 hc         1 1WV       0.044700
     25 H14          0.0820    -0.1010    -1.8760 hc         1 1WV       0.038200
     26 H15          1.6840    -0.9300    -0.1240 hc         1 1WV       0.054200
     27 H16          6.1970    -1.0110    -0.5350 h1         1 1WV       0.097700
     28 H17          7.7370     0.4970    -1.6830 ho         1 1WV       0.436000
     29 H18          9.7060    -1.0300     0.1690 ho         1 1WV       0.445000
     30 C1          -4.7950    -1.6030     0.5970 c3         1 1WV      -0.043200
     31 C2          -5.9930    -0.9200    -0.0940 c3         1 1WV      -0.072400
     32 C3          -6.5910     0.2390     0.7320 c3         1 1WV      -0.075400
     33 C4          -7.7880     0.9230     0.0360 c3         1 1WV      -0.075400
     34 C5          -8.3860     2.0830     0.8620 c3         1 1WV      -0.075400
     35 C6          -9.5800     2.7660     0.1670 c3         1 1WV      -0.088100
     36 H7          -0.4540    -2.2560    -0.6960 hc         1 1WV       0.042200
     37 H9           1.3390     2.1210    -0.0420 hc         1 1WV       0.073700
     38 H11         -0.8040     0.7950    -0.6410 hc         1 1WV       0.038200
     39 H19          0.7970    -0.0360     1.1110 hc         1 1WV       0.054200
     40 H20         -5.1130    -1.9930     1.5720 hc         1 1WV       0.043700
     41 H21         -4.0290    -0.8480     0.8100 hc         1 1WV       0.043700
     42 H22         -5.6710    -0.5380    -1.0710 hc         1 1WV       0.039700
     43 H23         -6.7720    -1.6690    -0.2850 hc         1 1WV       0.039700
     44 H24         -6.9130    -0.1430     1.7090 hc         1 1WV       0.036700
     45 H25         -5.8100     0.9870     0.9220 hc         1 1WV       0.036700
     46 H26         -7.4670     1.3050    -0.9410 hc         1 1WV       0.037700
     47 H27         -8.5700     0.1760    -0.1530 hc         1 1WV       0.037700
     48 H28         -8.7110     1.7050     1.8390 hc         1 1WV       0.036700
     49 H29         -7.6080     2.8330     1.0520 hc         1 1WV       0.036700
     50 H30         -9.9690     3.5810     0.7900 hc         1 1WV       0.031367
     51 H31         -9.2780     3.1870    -0.7990 hc         1 1WV       0.031367
     52 H32        -10.3910     2.0480    -0.0050 hc         1 1WV       0.031367
     53 O21          8.8990    -0.8410    -0.3620 oh         1 1WV      -0.642000
@<TRIPOS>BOND
     1     1     7 1   
     2     1     8 1   
     3     1    15 1   
     4     1    36 1   
     5     2     9 1   
     6     2    10 1   
     7     2    16 1   
     8     2    37 1   
     9     3    12 1   
    10     3    13 1   
    11     3    17 1   
    12     3    18 1   
    13     4    13 1   
    14     4    19 1   
    15     4    20 1   
    16     4    53 1   
    17     5     6 2   
    18     5    21 1   
    19     5    30 1   
    20     6     7 1   
    21     6    22 1   
    22     7    23 1   
    23     7    24 1   
    24     8     9 1   
    25     8    25 1   
    26     8    38 1   
    27     9    26 1   
    28     9    39 1   
    29    10    11 2   
    30    10    12 1   
    31    13    14 1   
    32    13    27 1   
    33    14    28 1   
    34    29    53 1   
    35    30    31 1   
    36    30    40 1   
    37    30    41 1   
    38    31    32 1   
    39    31    42 1   
    40    31    43 1   
    41    32    33 1   
    42    32    44 1   
    43    32    45 1   
    44    33    34 1   
    45    33    46 1   
    46    33    47 1   
    47    34    35 1   
    48    34    48 1   
    49    34    49 1   
    50    35    50 1   
    51    35    51 1   
    52    35    52 1   
@<TRIPOS>SUBSTRUCTURE
     1 1WV         1 TEMP              0 ****  ****    0 ROOT
