@<TRIPOS>MOLECULE
1WW
   35    36     1     0     0
SMALL
No Charge or Current Charge


@<TRIPOS>ATOM
      1 C1          -2.1740     1.3400     1.1830 ca         1 1WW      -0.100000
      2 Cl1          5.3350    -4.2680    -0.0330 cl         1 1WW      -0.234000
      3 C2          -1.6400     1.3120    -0.1210 ca         1 1WW      -0.087300
      4 C3          -2.4180     0.8010    -1.1790 ca         1 1WW      -0.100000
      5 C4          -3.4750     0.8650     1.4250 ca         1 1WW      -0.088500
      6 C5          -3.7190     0.3260    -0.9350 ca         1 1WW      -0.088500
      7 C6          -4.2460     0.3600     0.3660 ca         1 1WW       0.197000
      8 I7          -6.2500    -0.3720     0.7400 i          1 1WW      -0.340000
      9 C8          -0.2300     1.8180    -0.3830 c3         1 1WW       0.142300
     10 N9           0.7440     0.7350    -0.2730 ns         1 1WW      -0.507900
     11 C10          2.0980     0.8810    -0.4720 c          1 1WW       0.640700
     12 O11          2.5660     1.9660    -0.7830 o          1 1WW      -0.570100
     13 C12          4.3060    -0.3430    -0.0630 ca         1 1WW       0.226100
     14 C13          2.9160    -0.3870    -0.3480 ca         1 1WW      -0.216600
     15 C14          2.2950    -1.6490    -0.5280 ca         1 1WW      -0.050000
     16 C15          5.0400    -1.5470     0.0310 ca         1 1WW      -0.223000
     17 C16          3.0380    -2.8330    -0.4310 ca         1 1WW      -0.190000
     18 C17          4.4070    -2.7810    -0.1540 ca         1 1WW       0.180000
     19 C20          6.3320     0.9990     0.4640 c3         1 1WW      -0.004400
     20 C21          6.7900     2.4690     0.6880 c          1 1WW       0.730000
     21 O22          5.9690     3.3760     0.6300 o          1 1WW      -0.704500
     22 O23          7.9770     2.6600     0.9200 o          1 1WW      -0.704500
     23 H1          -1.5800     1.7280     2.0090 ha         1 1WW       0.127000
     24 H3          -2.0140     0.7690    -2.1890 ha         1 1WW       0.127000
     25 H4          -3.8870     0.8880     2.4310 ha         1 1WW       0.122500
     26 H5          -4.3190    -0.0680    -1.7510 ha         1 1WW       0.122500
     27 H8          -0.1720     2.2530    -1.3900 h1         1 1WW       0.069700
     28 H8A          0.0250     2.6050     0.3400 h1         1 1WW       0.069700
     29 HN9          0.4140    -0.1830    -0.0060 hn         1 1WW       0.312500
     30 H14          1.2370    -1.7280    -0.7680 ha         1 1WW       0.106000
     31 H15          6.1020    -1.5480     0.2500 ha         1 1WW       0.143000
     32 H16          2.5520    -3.7950    -0.5770 ha         1 1WW       0.118000
     33 H20          6.5700     0.4400     1.3780 h1         1 1WW       0.022700
     34 H20A         6.9340     0.5870    -0.3570 h1         1 1WW       0.022700
     35 O19          4.9220     0.8770     0.1580 os         1 1WW      -0.271100
@<TRIPOS>BOND
     1     1     3 ar  
     2     1     5 ar  
     3     1    23 1   
     4     2    18 1   
     5     3     4 ar  
     6     3     9 1   
     7     4     6 ar  
     8     4    24 1   
     9     5     7 ar  
    10     5    25 1   
    11     6     7 ar  
    12     6    26 1   
    13     7     8 1   
    14     9    10 1   
    15     9    27 1   
    16     9    28 1   
    17    10    11 1   
    18    10    29 1   
    19    11    12 2   
    20    11    14 1   
    21    13    14 ar  
    22    13    16 ar  
    23    13    35 1   
    24    14    15 ar  
    25    15    17 ar  
    26    15    30 1   
    27    16    18 ar  
    28    16    31 1   
    29    17    18 ar  
    30    17    32 1   
    31    19    20 1   
    32    19    33 1   
    33    19    34 1   
    34    19    35 1   
    35    20    21 1   
    36    20    22 1   
@<TRIPOS>SUBSTRUCTURE
     1 1WW         1 TEMP              0 ****  ****    0 ROOT
