@<TRIPOS>MOLECULE
1WW
   35    36     1     0     0
SMALL
abcg2


@<TRIPOS>ATOM
      1 C1          -2.3480     1.1900     1.2930 ca         1 1WW      -0.100000
      2 CL1          5.2540    -4.2040     0.0120 cl         1 1WW      -0.234000
      3 C2          -1.3760     1.3880     0.3200 ca         1 1WW      -0.087300
      4 C3          -1.6660     1.0360    -0.9960 ca         1 1WW      -0.100000
      5 C4          -3.5880     0.6520     0.9720 ca         1 1WW      -0.088500
      6 C5          -2.8980     0.4960    -1.3360 ca         1 1WW      -0.088500
      7 C6          -3.8510     0.3080    -0.3440 ca         1 1WW       0.197000
      8 I7          -5.7230    -0.5100    -0.8480 i          1 1WW      -0.340000
      9 C8          -0.0210     1.9370     0.6870 c3         1 1WW       0.142300
     10 N9           1.0010     0.9110     0.6760 ns         1 1WW      -0.507900
     11 C10          1.8430     0.7030    -0.3510 c          1 1WW       0.640700
     12 O11          1.8980     1.4090    -1.3440 o          1 1WW      -0.570100
     13 C12          4.1030    -0.3940    -0.1780 ca         1 1WW       0.226100
     14 C13          2.7040    -0.5110    -0.1960 ca         1 1WW      -0.216600
     15 C14          2.1200    -1.7660    -0.1310 ca         1 1WW      -0.050000
     16 C15          4.8840    -1.5460    -0.1120 ca         1 1WW      -0.223000
     17 C16          2.8860    -2.9220    -0.0700 ca         1 1WW      -0.190000
     18 C17          4.2610    -2.7850    -0.0650 ca         1 1WW       0.180000
     19 C20          5.9970     1.0350    -0.1040 c3         1 1WW      -0.004400
     20 C21          6.3390     2.5340    -0.0320 c          1 1WW       0.730000
     21 O22          5.4100     3.3520    -0.0250 o          1 1WW      -0.704500
     22 O23          7.5640     2.7550     0.0200 o          1 1WW      -0.704500
     23 H1          -2.1420     1.4560     2.3230 ha         1 1WW       0.127000
     24 H3          -0.9260     1.1840    -1.7730 ha         1 1WW       0.127000
     25 H4          -4.3260     0.5070     1.7490 ha         1 1WW       0.122500
     26 H5          -3.1020     0.2350    -2.3660 ha         1 1WW       0.122500
     27 H8           0.2750     2.7250    -0.0050 h1         1 1WW       0.069700
     28 H8A         -0.0530     2.3780     1.6840 h1         1 1WW       0.069700
     29 HN9          1.0220     0.2720     1.4540 hn         1 1WW       0.312500
     30 H14          1.0400    -1.8540    -0.1420 ha         1 1WW       0.106000
     31 H15          5.9630    -1.4940    -0.0940 ha         1 1WW       0.143000
     32 H16          2.4180    -3.8960    -0.0290 ha         1 1WW       0.118000
     33 H20          6.3890     0.5400     0.7930 h1         1 1WW       0.022700
     34 H20A         6.5030     0.5890    -0.9680 h1         1 1WW       0.022700
     35 O19          4.5940     0.8450    -0.1990 os         1 1WW      -0.271100
@<TRIPOS>BOND
     1     1     3 ar  
     2     1     5 ar  
     3     1    23 1   
     4     2    18 1   
     5     3     4 ar  
     6     3     9 1   
     7     4     6 ar  
     8     4    24 1   
     9     5     7 ar  
    10     5    25 1   
    11     6     7 ar  
    12     6    26 1   
    13     7     8 1   
    14     9    10 1   
    15     9    27 1   
    16     9    28 1   
    17    10    11 1   
    18    10    29 1   
    19    11    12 2   
    20    11    14 1   
    21    13    14 ar  
    22    13    16 ar  
    23    13    35 1   
    24    14    15 ar  
    25    15    17 ar  
    26    15    30 1   
    27    16    18 ar  
    28    16    31 1   
    29    17    18 ar  
    30    17    32 1   
    31    19    20 1   
    32    19    33 1   
    33    19    34 1   
    34    19    35 1   
    35    20    21 1   
    36    20    22 1   
@<TRIPOS>SUBSTRUCTURE
     1 1WW         1 TEMP              0 ****  ****    0 ROOT
