@<TRIPOS>MOLECULE
1WX
   35    36     1     0     0
SMALL
abcg2


@<TRIPOS>ATOM
      1 C1           1.6760    -1.1460     0.2690 ca         1 1WX      -0.123300
      2 C2           2.6530    -1.2180     1.2460 ca         1 1WX       0.153000
      3 C3           1.9700    -0.3960    -0.8610 ca         1 1WX       0.153000
      4 C4           3.8710    -0.5750     1.1080 ca         1 1WX       0.160500
      5 C5           3.1760     0.2550    -1.0160 ca         1 1WX       0.160500
      6 C6           4.1430     0.1700    -0.0260 ca         1 1WX      -0.092900
      7 C7           0.3340    -1.8190     0.4090 c3         1 1WX       0.149300
      8 C9          -1.7130    -0.7640    -0.4660 c          1 1WX       0.643700
      9 C10         -2.5760     0.4470    -0.3180 ca         1 1WX      -0.217600
     10 C11         -3.9680     0.3250    -0.1740 ca         1 1WX       0.229100
     11 C12         -2.0050     1.7060    -0.4000 ca         1 1WX      -0.046000
     12 C13         -4.7520     1.4770    -0.1330 ca         1 1WX      -0.224000
     13 C14         -2.7750     2.8600    -0.3680 ca         1 1WX      -0.191000
     14 C15         -4.1430     2.7190    -0.2350 ca         1 1WX       0.182000
     15 C18         -5.8480    -1.0960     0.0710 c3         1 1WX      -0.005400
     16 C19         -6.1910    -2.5890     0.2090 c          1 1WX       0.732000
     17 O21         -7.4180    -2.8060     0.2480 o          1 1WX      -0.704000
     18 O20         -5.2630    -3.4000     0.2940 o          1 1WX      -0.704000
     19 O17         -4.4500    -0.9100    -0.0550 os         1 1WX      -0.270100
     20 CL2         -5.1410     4.1330    -0.1890 cl         1 1WX      -0.231000
     21 O16         -1.8670    -1.5690    -1.3640 o          1 1WX      -0.550100
     22 N8          -0.7310    -0.8480     0.4570 ns         1 1WX      -0.519900
     23 F27          1.0630    -0.2940    -1.8300 f          1 1WX      -0.138500
     24 F24          2.4370    -1.9190     2.3580 f          1 1WX      -0.138500
     25 F25          4.7740    -0.6750     2.0750 f          1 1WX      -0.138000
     26 F26          3.4030     0.9610    -2.1130 f          1 1WX      -0.138000
     27 BR2          5.7730     1.0430    -0.2180 br         1 1WX      -0.029100
     28 H1           0.1580    -2.4780    -0.4390 h1         1 1WX       0.084700
     29 H2           0.3140    -2.4460     1.2990 h1         1 1WX       0.084700
     30 H3          -0.9330     1.8010    -0.5210 ha         1 1WX       0.105000
     31 H4          -5.8240     1.4210    -0.0160 ha         1 1WX       0.144000
     32 H5          -2.3170     3.8340    -0.4530 ha         1 1WX       0.118000
     33 H6          -6.3670    -0.6830    -0.8020 h1         1 1WX       0.022700
     34 H7          -6.2260    -0.5640     0.9530 h1         1 1WX       0.022700
     35 H9          -0.7310    -0.1940     1.2220 hn         1 1WX       0.315500
@<TRIPOS>BOND
     1     1     2 ar  
     2     1     3 ar  
     3     1     7 1   
     4     2     4 ar  
     5     2    24 1   
     6     3     5 ar  
     7     3    23 1   
     8     4     6 ar  
     9     4    25 1   
    10     5     6 ar  
    11     5    26 1   
    12     6    27 1   
    13     7    22 1   
    14     7    28 1   
    15     7    29 1   
    16     8     9 1   
    17     8    21 2   
    18     8    22 1   
    19     9    10 ar  
    20     9    11 ar  
    21    10    12 ar  
    22    10    19 1   
    23    11    13 ar  
    24    11    30 1   
    25    12    14 ar  
    26    12    31 1   
    27    13    14 ar  
    28    13    32 1   
    29    14    20 1   
    30    15    16 1   
    31    15    19 1   
    32    15    33 1   
    33    15    34 1   
    34    16    17 1   
    35    16    18 1   
    36    22    35 1   
@<TRIPOS>SUBSTRUCTURE
     1 1WX         1 TEMP              0 ****  ****    0 ROOT
