@<TRIPOS>MOLECULE
1WX
   35    36     1     0     0
SMALL
No Charge or Current Charge


@<TRIPOS>ATOM
      1 C1           1.8950    -1.0520    -0.1110 ca         1 1WX      -0.123300
      2 C2           2.4320    -1.0720     1.1950 ca         1 1WX       0.153000
      3 C3           2.6660    -0.4930    -1.1550 ca         1 1WX       0.153000
      4 C4           3.7150    -0.5470     1.4510 ca         1 1WX       0.160500
      5 C5           3.9480     0.0320    -0.8980 ca         1 1WX       0.160500
      6 C6           4.4780     0.0060     0.4060 ca         1 1WX      -0.092900
      7 C7           0.5080    -1.6180    -0.3900 c3         1 1WX       0.149300
      8 C9          -1.8620    -0.7930    -0.4860 c          1 1WX       0.643700
      9 C10         -2.7450     0.4270    -0.3410 ca         1 1WX      -0.217600
     10 C11         -4.1340     0.3040    -0.0750 ca         1 1WX       0.229100
     11 C12         -2.1880     1.7240    -0.4820 ca         1 1WX      -0.046000
     12 C13         -4.9300     1.4660     0.0390 ca         1 1WX      -0.224000
     13 C14         -2.9940     2.8650    -0.3650 ca         1 1WX      -0.191000
     14 C15         -4.3610     2.7350    -0.1060 ca         1 1WX       0.182000
     15 C18         -6.0930    -1.1550     0.3910 c3         1 1WX      -0.005400
     16 C19         -6.4750    -2.6520     0.5710 c          1 1WX       0.732000
     17 O21         -7.6520    -2.9110     0.7840 o          1 1WX      -0.704000
     18 O20         -5.6060    -3.5130     0.4990 o          1 1WX      -0.704000
     19 O17         -4.6870    -0.9510     0.1070 os         1 1WX      -0.270100
     20 Cl2         -5.3660     4.1690     0.0390 cl         1 1WX      -0.231000
     21 O16         -2.2700    -1.8920    -0.8310 o          1 1WX      -0.550100
     22 N8          -0.5190    -0.5840    -0.2630 ns         1 1WX      -0.519900
     23 F27          2.1700    -0.4550    -2.4150 f          1 1WX      -0.138500
     24 F24          1.7110    -1.5950     2.2140 f          1 1WX      -0.138500
     25 F25          4.2150    -0.5730     2.7090 f          1 1WX      -0.138000
     26 F26          4.6730     0.5640    -1.9090 f          1 1WX      -0.138000
     27 Br2          6.2260     0.7230     0.7560 br         1 1WX      -0.029100
     28 H1           0.4690    -2.0400    -1.4030 h1         1 1WX       0.084700
     29 H2           0.2830    -2.4340     0.3100 h1         1 1WX       0.084700
     30 H3          -1.1330     1.8630    -0.7080 ha         1 1WX       0.105000
     31 H4          -5.9930     1.4060     0.2460 ha         1 1WX       0.144000
     32 H5          -2.5570     3.8540    -0.4820 ha         1 1WX       0.118000
     33 H6          -6.7050    -0.7540    -0.4270 h1         1 1WX       0.022700
     34 H7          -6.3700    -0.6340     1.3160 h1         1 1WX       0.022700
     35 H9          -0.2430     0.3420     0.0350 hn         1 1WX       0.315500
@<TRIPOS>BOND
     1     1     2 ar  
     2     1     3 ar  
     3     1     7 1   
     4     2     4 ar  
     5     2    24 1   
     6     3     5 ar  
     7     3    23 1   
     8     4     6 ar  
     9     4    25 1   
    10     5     6 ar  
    11     5    26 1   
    12     6    27 1   
    13     7    22 1   
    14     7    28 1   
    15     7    29 1   
    16     8     9 1   
    17     8    21 2   
    18     8    22 1   
    19     9    10 ar  
    20     9    11 ar  
    21    10    12 ar  
    22    10    19 1   
    23    11    13 ar  
    24    11    30 1   
    25    12    14 ar  
    26    12    31 1   
    27    13    14 ar  
    28    13    32 1   
    29    14    20 1   
    30    15    16 1   
    31    15    19 1   
    32    15    33 1   
    33    15    34 1   
    34    16    17 1   
    35    16    18 1   
    36    22    35 1   
@<TRIPOS>SUBSTRUCTURE
     1 1WX         1 TEMP              0 ****  ****    0 ROOT
