@<TRIPOS>MOLECULE
1WY
   50    53     1     0     0
SMALL
abcg2


@<TRIPOS>ATOM
      1 C2           0.2810     0.3590    -0.2250 ca         1 1WY       0.400900
      2 C3           2.4450     1.1410    -0.2520 ca         1 1WY       0.305800
      3 C5           1.9210     2.4440    -0.1500 ca         1 1WY      -0.066000
      4 C6           0.5490     2.5840    -0.1090 ca         1 1WY       0.159900
      5 C8          -1.8570    -0.9490    -0.1560 ca         1 1WY       0.322000
      6 C11         -4.1700    -0.2130    -0.0730 ca         1 1WY      -0.022000
      7 C12         -3.6490    -2.5530     0.0310 ca         1 1WY      -0.142000
      8 C15         -1.6910    -4.5850     0.0020 c3         1 1WY       0.155900
      9 C17         -6.3690     0.9640     0.0190 c          1 1WY       0.604100
     10 C19         -6.9210     2.3680    -0.1260 c3         1 1WY      -0.159400
     11 C23          4.9180     1.5730    -0.6850 cc         1 1WY      -0.101100
     12 C24          4.4040    -0.5090     0.0150 ca         1 1WY      -0.052800
     13 C27          3.8840    -1.7260     0.4720 ca         1 1WY      -0.047000
     14 C30          6.1280    -2.6570     0.4850 ca         1 1WY      -0.092000
     15 CL1          2.8900     3.8660    -0.0220 cl         1 1WY      -0.188000
     16 C22          3.8500     0.7880    -0.3000 cd         1 1WY      -0.247000
     17 C28          4.7470    -2.7800     0.7020 ca         1 1WY      -0.139000
     18 C29          6.6720    -1.4690     0.0370 ca         1 1WY      -0.127000
     19 C26          5.7950    -0.4120    -0.1910 ca         1 1WY      -0.065200
     20 N25          6.0600     0.8590    -0.6240 na         1 1WY      -0.210700
     21 N1           1.5900     0.1250    -0.2840 nb         1 1WY      -0.261000
     22 N4          -0.2860     1.5580    -0.1530 nb         1 1WY      -0.241000
     23 N7          -0.4830    -0.7660    -0.2460 nu         1 1WY      -0.917900
     24 C10         -2.2970    -2.2870    -0.0590 ca         1 1WY       0.059100
     25 C13         -4.5950    -1.5290     0.0280 ca         1 1WY      -0.126000
     26 C9          -2.8010     0.0660    -0.1650 ca         1 1WY      -0.174000
     27 N16         -5.0190     0.9010    -0.1000 ns         1 1WY      -0.148000
     28 O18         -7.0800    -0.0080     0.2080 o          1 1WY      -0.583100
     29 C20         -8.3790     2.4900     0.2750 c3         1 1WY      -0.076100
     30 H1           0.1080     3.5720    -0.0310 h4         1 1WY       0.030100
     31 H2          -4.0030    -3.5720     0.1110 ha         1 1WY       0.120000
     32 H3          -0.7670    -5.1570    -0.0280 h1         1 1WY       0.040700
     33 H4          -2.2210    -4.8190     0.9280 h1         1 1WY       0.040700
     34 H5          -2.3150    -4.8760    -0.8470 h1         1 1WY       0.040700
     35 H6          -6.3070     3.0600     0.4570 hc         1 1WY       0.056700
     36 H7          -6.7890     2.6690    -1.1710 hc         1 1WY       0.056700
     37 H8           4.9460     2.5900    -1.0350 h4         1 1WY       0.224000
     38 H9           2.8230    -1.8430     0.6370 ha         1 1WY       0.133000
     39 H10          6.7760    -3.5020     0.6740 ha         1 1WY       0.111000
     40 H11          4.3510    -3.7230     1.0540 ha         1 1WY       0.111000
     41 H12          7.7360    -1.3620    -0.1290 ha         1 1WY       0.113000
     42 H13          6.9690     1.2200    -0.8630 hn         1 1WY       0.353000
     43 H14          0.0630    -1.6130    -0.2950 hn         1 1WY       0.529000
     44 H15         -5.6390    -1.7820     0.1050 ha         1 1WY       0.150000
     45 H16         -2.4690     1.0900    -0.2410 ha         1 1WY       0.149000
     46 H17         -4.5500     1.7840    -0.2400 hn         1 1WY       0.150000
     47 H18         -8.5310     2.2300     1.3220 hc         1 1WY       0.044033
     48 H19         -8.7160     3.5180     0.1370 hc         1 1WY       0.044033
     49 H20         -9.0190     1.8480    -0.3280 hc         1 1WY       0.044033
     50 O14         -1.3210    -3.2230    -0.0610 os         1 1WY      -0.363100
@<TRIPOS>BOND
     1     1    21 ar  
     2     1    22 ar  
     3     1    23 1   
     4     2     3 ar  
     5     2    16 1   
     6     2    21 ar  
     7     3     4 ar  
     8     3    15 1   
     9     4    22 ar  
    10     4    30 1   
    11     5    23 1   
    12     5    24 ar  
    13     5    26 ar  
    14     6    25 ar  
    15     6    26 ar  
    16     6    27 1   
    17     7    24 ar  
    18     7    25 ar  
    19     7    31 1   
    20     8    32 1   
    21     8    33 1   
    22     8    34 1   
    23     8    50 1   
    24     9    10 1   
    25     9    27 1   
    26     9    28 2   
    27    10    29 1   
    28    10    35 1   
    29    10    36 1   
    30    11    16 2   
    31    11    20 1   
    32    11    37 1   
    33    12    13 ar  
    34    12    16 1   
    35    12    19 ar  
    36    13    17 ar  
    37    13    38 1   
    38    14    17 ar  
    39    14    18 ar  
    40    14    39 1   
    41    17    40 1   
    42    18    19 ar  
    43    18    41 1   
    44    19    20 1   
    45    20    42 1   
    46    23    43 1   
    47    24    50 1   
    48    25    44 1   
    49    26    45 1   
    50    27    46 1   
    51    29    47 1   
    52    29    48 1   
    53    29    49 1   
@<TRIPOS>SUBSTRUCTURE
     1 1WY         1 TEMP              0 ****  ****    0 ROOT
