@<TRIPOS>MOLECULE
1WY
   50    53     1     0     0
SMALL
No Charge or Current Charge


@<TRIPOS>ATOM
      1 C2           0.2570     0.3360     0.1490 ca         1 1WY       0.400900
      2 C3           2.4250     1.1220     0.2010 ca         1 1WY       0.305800
      3 C5           1.9250     2.3920     0.6020 ca         1 1WY      -0.066000
      4 C6           0.5350     2.5160     0.7720 ca         1 1WY       0.159900
      5 C8          -1.9350    -1.0210    -0.0720 ca         1 1WY       0.322000
      6 C11         -4.2640    -0.2860    -0.3080 ca         1 1WY      -0.022000
      7 C12         -3.7590    -2.6400     0.1180 ca         1 1WY      -0.142000
      8 C15         -1.7810    -4.7310     0.5180 c3         1 1WY       0.155900
      9 C17         -6.5320     0.8710    -0.6840 c          1 1WY       0.604100
     10 C19         -7.0700     2.2910    -0.9170 c3         1 1WY      -0.159400
     11 C23          4.7950     1.7740    -0.5450 cc         1 1WY      -0.101100
     12 C24          4.4750    -0.4750    -0.0320 ca         1 1WY      -0.052800
     13 C27          4.0110    -1.7370     0.3810 ca         1 1WY      -0.047000
     14 C30          6.2390    -2.6360    -0.1220 ca         1 1WY      -0.092000
     15 Cl1          2.9420     3.7840     0.9930 cl         1 1WY      -0.188000
     16 C22          3.8570     0.8450    -0.0930 cd         1 1WY      -0.247000
     17 C28          4.9100    -2.8240     0.3260 ca         1 1WY      -0.139000
     18 C29          6.6820    -1.3550    -0.5120 ca         1 1WY      -0.127000
     19 C26          5.7670    -0.2960    -0.4500 ca         1 1WY      -0.065200
     20 N25          5.9750     1.0350    -0.7580 na         1 1WY      -0.210700
     21 N1           1.5660     0.1050    -0.0280 nb         1 1WY      -0.261000
     22 N4          -0.3030     1.4880     0.5490 nb         1 1WY      -0.241000
     23 N7          -0.5530    -0.7670    -0.0700 nu         1 1WY      -0.917900
     24 C10         -2.3760    -2.3550     0.1210 ca         1 1WY       0.059100
     25 C13         -4.6940    -1.6110    -0.0890 ca         1 1WY      -0.126000
     26 C9          -2.8850    -0.0060    -0.2990 ca         1 1WY      -0.174000
     27 N16         -5.1520     0.8020    -0.5380 ns         1 1WY      -0.148000
     28 O18         -7.2810    -0.0990    -0.6660 o          1 1WY      -0.583100
     29 C20         -7.8040     2.8380     0.3280 c3         1 1WY      -0.076100
     30 H1           0.0860     3.4510     1.1010 h4         1 1WY       0.030100
     31 H2          -4.1290    -3.6500     0.2730 ha         1 1WY       0.120000
     32 H3          -0.8780    -5.3410     0.6450 h1         1 1WY       0.040700
     33 H4          -2.3960    -4.8440     1.4200 h1         1 1WY       0.040700
     34 H5          -2.3380    -5.1240    -0.3420 h1         1 1WY       0.040700
     35 H6          -6.2460     2.9740    -1.1560 hc         1 1WY       0.056700
     36 H7          -7.7820     2.2660    -1.7510 hc         1 1WY       0.056700
     37 H8           4.7240     2.8360    -0.7640 h4         1 1WY       0.224000
     38 H9           2.9990    -1.8870     0.7450 ha         1 1WY       0.133000
     39 H10          6.9240    -3.4800    -0.1580 ha         1 1WY       0.111000
     40 H11          4.5800    -3.8130     0.6360 ha         1 1WY       0.111000
     41 H12          7.7040    -1.1970    -0.8480 ha         1 1WY       0.113000
     42 H13          6.8500     1.4190    -1.0990 hn         1 1WY       0.353000
     43 H14         -0.0180    -1.6340    -0.1210 hn         1 1WY       0.529000
     44 H15         -5.7490    -1.8690    -0.0790 ha         1 1WY       0.150000
     45 H16         -2.5570     1.0090    -0.4920 ha         1 1WY       0.149000
     46 H17         -4.6880     1.6990    -0.6010 hn         1 1WY       0.150000
     47 H18         -7.1280     2.8810     1.1900 hc         1 1WY       0.044033
     48 H19         -8.1800     3.8510     0.1370 hc         1 1WY       0.044033
     49 H20         -8.6580     2.2000     0.5890 hc         1 1WY       0.044033
     50 O14         -1.4250    -3.3510     0.3110 os         1 1WY      -0.363100
@<TRIPOS>BOND
     1     1    21 ar  
     2     1    22 ar  
     3     1    23 1   
     4     2     3 ar  
     5     2    16 1   
     6     2    21 ar  
     7     3     4 ar  
     8     3    15 1   
     9     4    22 ar  
    10     4    30 1   
    11     5    23 1   
    12     5    24 ar  
    13     5    26 ar  
    14     6    25 ar  
    15     6    26 ar  
    16     6    27 1   
    17     7    24 ar  
    18     7    25 ar  
    19     7    31 1   
    20     8    32 1   
    21     8    33 1   
    22     8    34 1   
    23     8    50 1   
    24     9    10 1   
    25     9    27 1   
    26     9    28 2   
    27    10    29 1   
    28    10    35 1   
    29    10    36 1   
    30    11    16 2   
    31    11    20 1   
    32    11    37 1   
    33    12    13 ar  
    34    12    16 1   
    35    12    19 ar  
    36    13    17 ar  
    37    13    38 1   
    38    14    17 ar  
    39    14    18 ar  
    40    14    39 1   
    41    17    40 1   
    42    18    19 ar  
    43    18    41 1   
    44    19    20 1   
    45    20    42 1   
    46    23    43 1   
    47    24    50 1   
    48    25    44 1   
    49    26    45 1   
    50    27    46 1   
    51    29    47 1   
    52    29    48 1   
    53    29    49 1   
@<TRIPOS>SUBSTRUCTURE
     1 1WY         1 TEMP              0 ****  ****    0 ROOT
