@<TRIPOS>MOLECULE
1WZ
   43    44     1     0     0
SMALL
No Charge or Current Charge


@<TRIPOS>ATOM
      1 CAA         -5.8300     2.3220     0.3330 c3         1 1WZ      -0.036800
      2 CAP         -4.9050     1.1210     0.1490 ca         1 1WZ      -0.139800
      3 CAJ         -3.5100     1.3130     0.1420 ca         1 1WZ      -0.075000
      4 CAT         -5.4270    -0.1790    -0.0140 ca         1 1WZ       0.122100
      5 OAG         -6.7810    -0.3710    -0.0080 oh         1 1WZ      -0.547100
      6 CAQ         -4.5580    -1.2790    -0.1840 ca         1 1WZ      -0.139800
      7 CAB         -5.0980    -2.6970    -0.3670 c3         1 1WZ      -0.036800
      8 CAK         -3.1650    -1.0670    -0.1880 ca         1 1WZ      -0.075000
      9 CAR         -2.6300     0.2270    -0.0220 ca         1 1WZ      -0.047800
     10 CAH         -1.1570     0.4770    -0.0240 ce         1 1WZ      -0.204200
     11 CAI         -0.1300    -0.4220     0.0100 cf         1 1WZ      -0.104200
     12 CAS          1.3310    -0.1870     0.0100 ca         1 1WZ      -0.076800
     13 CAM          2.1990    -1.2940     0.0610 ca         1 1WZ      -0.186000
     14 CAL          1.8800     1.1100    -0.0420 ca         1 1WZ      -0.095000
     15 CAU          3.2800     1.3120    -0.0430 ca         1 1WZ      -0.112600
     16 CAO          3.8640     2.7170    -0.0960 c          1 1WZ       0.711600
     17 OAF          3.0990     3.6710    -0.1240 o          1 1WZ      -0.720500
     18 OAE          5.0810     2.8470    -0.1110 o          1 1WZ      -0.720500
     19 CAN          4.1250     0.1780     0.0080 ca         1 1WZ      -0.133000
     20 CAV          3.5990    -1.1280     0.0610 ca         1 1WZ       0.280000
     21 NAW          4.4600    -2.2570     0.1120 nh         1 1WZ      -0.836400
     22 CAD          5.8110    -2.2290    -0.4950 c3         1 1WZ       0.224600
     23 CAC          4.0440    -3.5190     0.7670 c3         1 1WZ       0.224600
     24 H1          -6.4960     2.4410    -0.5300 hc         1 1WZ       0.036200
     25 H2          -6.4550     2.2040     1.2260 hc         1 1WZ       0.036200
     26 H3          -5.2690     3.2580     0.4460 hc         1 1WZ       0.036200
     27 H4          -3.1060     2.3150     0.2690 ha         1 1WZ       0.115000
     28 H5          -6.9530    -1.3270    -0.1340 ho         1 1WZ       0.457000
     29 H6          -5.7310    -2.7680    -1.2600 hc         1 1WZ       0.036200
     30 H7          -4.2900    -3.4290    -0.4850 hc         1 1WZ       0.036200
     31 H8          -5.6930    -3.0100     0.5000 hc         1 1WZ       0.036200
     32 H9          -2.5030    -1.9160    -0.3270 ha         1 1WZ       0.115000
     33 H10         -0.9050     1.5360    -0.0500 ha         1 1WZ       0.188000
     34 H11         -0.3930    -1.4780     0.0500 ha         1 1WZ       0.149000
     35 H12          1.7770    -2.2940     0.0890 ha         1 1WZ       0.084000
     36 H13          1.2250     1.9750    -0.0820 ha         1 1WZ       0.131000
     37 H15          5.2010     0.3180     0.0200 ha         1 1WZ       0.132000
     38 H16          6.5400    -1.8060     0.2090 h1         1 1WZ       0.022867
     39 H17          6.1360    -3.2430    -0.7670 h1         1 1WZ       0.022867
     40 H18          5.8090    -1.6240    -1.4110 h1         1 1WZ       0.022867
     41 H19          3.4720    -4.1430     0.0680 h1         1 1WZ       0.022867
     42 H20          4.9200    -4.0870     1.1080 h1         1 1WZ       0.022867
     43 H21          3.4220    -3.3080     1.6470 h1         1 1WZ       0.022867
@<TRIPOS>BOND
     1     1     2 1   
     2     1    24 1   
     3     1    25 1   
     4     1    26 1   
     5     2     3 ar  
     6     2     4 ar  
     7     3     9 ar  
     8     3    27 1   
     9     4     5 1   
    10     4     6 ar  
    11     5    28 1   
    12     6     7 1   
    13     6     8 ar  
    14     7    29 1   
    15     7    30 1   
    16     7    31 1   
    17     8     9 ar  
    18     8    32 1   
    19     9    10 1   
    20    10    11 2   
    21    10    33 1   
    22    11    12 1   
    23    11    34 1   
    24    12    13 ar  
    25    12    14 ar  
    26    13    20 ar  
    27    13    35 1   
    28    14    15 ar  
    29    14    36 1   
    30    15    16 1   
    31    15    19 ar  
    32    16    17 1   
    33    16    18 1   
    34    19    20 ar  
    35    19    37 1   
    36    20    21 1   
    37    21    22 1   
    38    21    23 1   
    39    22    38 1   
    40    22    39 1   
    41    22    40 1   
    42    23    41 1   
    43    23    42 1   
    44    23    43 1   
@<TRIPOS>SUBSTRUCTURE
     1 1WZ         1 TEMP              0 ****  ****    0 ROOT
