@<TRIPOS>MOLECULE
1WZ
   43    44     1     0     0
SMALL
bcc


@<TRIPOS>ATOM
      1 CAA         -5.7140     2.2520     0.5370 c3         1 1WZ      -0.036800
      2 CAP         -4.8010     1.0910     0.2770 ca         1 1WZ      -0.139800
      3 CAJ         -3.4230     1.2510     0.2460 ca         1 1WZ      -0.093000
      4 CAT         -5.3230    -0.1860     0.0560 ca         1 1WZ       0.122100
      5 OAG         -6.6670    -0.3100     0.0920 oh         1 1WZ      -0.508100
      6 CAQ         -4.4810    -1.2780    -0.1930 ca         1 1WZ      -0.139800
      7 CAB         -5.0590    -2.6410    -0.4470 c3         1 1WZ      -0.036800
      8 CAK         -3.1110    -1.0710    -0.2100 ca         1 1WZ      -0.093000
      9 CAR         -2.5490     0.1880     0.0110 ca         1 1WZ      -0.047800
     10 CAH         -1.1100     0.4420    -0.0020 ce         1 1WZ      -0.154200
     11 CAI         -0.1390    -0.4780    -0.0870 cf         1 1WZ      -0.054200
     12 CAS          1.3010    -0.2150    -0.1170 ca         1 1WZ      -0.076800
     13 CAM          2.1610    -1.3060    -0.0020 ca         1 1WZ      -0.204000
     14 CAL          1.8380     1.0660    -0.2650 ca         1 1WZ      -0.113000
     15 CAU          3.2140     1.2450    -0.2890 ca         1 1WZ      -0.112600
     16 CAO          3.8050     2.6440    -0.4440 c          1 1WZ       0.922200
     17 OAF          2.9960     3.5840    -0.5680 o          1 1WZ      -0.825800
     18 OAE          5.0480     2.7350    -0.4340 o          1 1WZ      -0.825800
     19 CAN          4.0620     0.1480    -0.1730 ca         1 1WZ      -0.151000
     20 CAV          3.5570    -1.1550    -0.0390 ca         1 1WZ       0.141600
     21 NAW          4.3920    -2.2450     0.0410 nh         1 1WZ      -0.698000
     22 CAD          5.8140    -2.0370     0.1730 c3         1 1WZ       0.224600
     23 CAC          3.8490    -3.5210     0.4440 c3         1 1WZ       0.224600
     24 H1          -6.4130     2.4100    -0.2860 hc         1 1WZ       0.036200
     25 H2          -6.3130     2.1040     1.4380 hc         1 1WZ       0.036200
     26 H3          -5.1430     3.1700     0.6670 hc         1 1WZ       0.036200
     27 H4          -3.0150     2.2410     0.4190 ha         1 1WZ       0.133000
     28 H5          -6.9410    -1.2110    -0.1080 ho         1 1WZ       0.418000
     29 H6          -5.6860    -2.6600    -1.3420 hc         1 1WZ       0.036200
     30 H7          -4.2680    -3.3740    -0.5960 hc         1 1WZ       0.036200
     31 H8          -5.6690    -2.9940     0.3890 hc         1 1WZ       0.036200
     32 H9          -2.4720    -1.9240    -0.4090 ha         1 1WZ       0.133000
     33 H10         -0.8370     1.4900     0.0750 ha         1 1WZ       0.138000
     34 H11         -0.4100    -1.5290    -0.1290 ha         1 1WZ       0.099000
     35 H12          1.7220    -2.2880     0.1180 ha         1 1WZ       0.102000
     36 H13          1.1930     1.9270    -0.3710 ha         1 1WZ       0.149000
     37 H15          5.1270     0.3260    -0.1910 ha         1 1WZ       0.150000
     38 H16          6.0930    -1.5220     1.1000 h1         1 1WZ       0.022867
     39 H17          6.3210    -2.9980     0.1590 h1         1 1WZ       0.022867
     40 H18          6.2090    -1.4550    -0.6620 h1         1 1WZ       0.022867
     41 H19          3.1080    -3.8880    -0.2690 h1         1 1WZ       0.022867
     42 H20          4.6490    -4.2560     0.4790 h1         1 1WZ       0.022867
     43 H21          3.3760    -3.4920     1.4330 h1         1 1WZ       0.022867
@<TRIPOS>BOND
     1     1     2 1   
     2     1    24 1   
     3     1    25 1   
     4     1    26 1   
     5     2     3 ar  
     6     2     4 ar  
     7     3     9 ar  
     8     3    27 1   
     9     4     5 1   
    10     4     6 ar  
    11     5    28 1   
    12     6     7 1   
    13     6     8 ar  
    14     7    29 1   
    15     7    30 1   
    16     7    31 1   
    17     8     9 ar  
    18     8    32 1   
    19     9    10 1   
    20    10    11 2   
    21    10    33 1   
    22    11    12 1   
    23    11    34 1   
    24    12    13 ar  
    25    12    14 ar  
    26    13    20 ar  
    27    13    35 1   
    28    14    15 ar  
    29    14    36 1   
    30    15    16 1   
    31    15    19 ar  
    32    16    17 1   
    33    16    18 1   
    34    19    20 ar  
    35    19    37 1   
    36    20    21 1   
    37    21    22 1   
    38    21    23 1   
    39    22    38 1   
    40    22    39 1   
    41    22    40 1   
    42    23    41 1   
    43    23    42 1   
    44    23    43 1   
@<TRIPOS>SUBSTRUCTURE
     1 1WZ         1 TEMP              0 ****  ****    0 ROOT
