@<TRIPOS>MOLECULE
1X0
   25    24     1     0     0
SMALL
No Charge or Current Charge


@<TRIPOS>ATOM
      1 C17          3.1130     0.5450     0.0240 c          1 1X0       0.692000
      2 C18          1.8870    -0.3370    -0.4580 c3         1 1X0       0.013500
      3 O19          3.6150     0.3020     1.1140 o          1 1X0      -0.736500
      4 N20          2.0720    -1.8330    -0.3670 n8         1 1X0      -1.000200
      5 C24          0.5880     0.1100     0.2690 c3         1 1X0      -0.050400
      6 C25         -0.7200    -0.4320    -0.3590 c3         1 1X0      -0.073400
      7 C26         -1.9910     0.0840     0.3540 c3         1 1X0      -0.072400
      8 C27         -3.2970    -0.4520    -0.2700 c3         1 1X0      -0.051200
      9 C28         -4.5280     0.0690     0.4430 c2         1 1X0      -0.196200
     10 H14          1.7510    -0.1060    -1.5240 h1         1 1X0       0.035700
     11 H15          2.9090    -2.0980    -0.9010 hn         1 1X0       0.380000
     12 H16          0.6390    -0.1860     1.3240 hc         1 1X0       0.037700
     13 H17          0.5460     1.2060     0.2560 hc         1 1X0       0.037700
     14 H18         -0.7580    -0.1420    -1.4160 hc         1 1X0       0.035700
     15 H19         -0.7160    -1.5280    -0.3270 hc         1 1X0       0.035700
     16 H20         -1.9530    -0.2040     1.4120 hc         1 1X0       0.033700
     17 H21         -2.0030     1.1810     0.3210 hc         1 1X0       0.033700
     18 H22         -3.3260    -0.1730    -1.3310 hc         1 1X0       0.040700
     19 H23         -3.2890    -1.5480    -0.2360 hc         1 1X0       0.040700
     20 H24         -4.6160    -0.2500     1.4850 ha         1 1X0       0.158000
     21 OXT          3.5850     1.3580    -0.7590 o          1 1X0      -0.736500
     22 H1           2.3310    -2.0650     0.6000 hn         1 1X0       0.380000
     23 C1          -5.4680     0.8530    -0.1080 c2         1 1X0      -0.345000
     24 H2          -6.3340     1.1920     0.4640 ha         1 1X0       0.153500
     25 H3          -5.4050     1.1840    -1.1450 ha         1 1X0       0.153500
@<TRIPOS>BOND
     1     1     2 1   
     2     1     3 1   
     3     1    21 1   
     4     2     4 1   
     5     2     5 1   
     6     2    10 1   
     7     4    11 1   
     8     4    22 1   
     9     5     6 1   
    10     5    12 1   
    11     5    13 1   
    12     6     7 1   
    13     6    14 1   
    14     6    15 1   
    15     7     8 1   
    16     7    16 1   
    17     7    17 1   
    18     8     9 1   
    19     8    18 1   
    20     8    19 1   
    21     9    20 1   
    22     9    23 2   
    23    23    24 1   
    24    23    25 1   
@<TRIPOS>SUBSTRUCTURE
     1 1X0         1 TEMP              0 ****  ****    0 ROOT
