@<TRIPOS>MOLECULE
1X0
   25    24     1     0     0
SMALL
bcc


@<TRIPOS>ATOM
      1 C17          3.0690     0.4650     0.0480 c          1 1X0       0.902600
      2 C18          1.8570    -0.3550    -0.4590 c3         1 1X0       0.013500
      3 O19          3.9030    -0.1180     0.7700 o          1 1X0      -0.841800
      4 N20          1.9600    -1.7970    -0.2850 n8         1 1X0      -0.889800
      5 C24          0.5790     0.1650     0.2050 c3         1 1X0      -0.050400
      6 C25         -0.7020    -0.4350    -0.3580 c3         1 1X0      -0.073400
      7 C26         -1.9550     0.1190     0.3080 c3         1 1X0      -0.072400
      8 C27         -3.2450    -0.4500    -0.2870 c3         1 1X0      -0.051200
      9 C28         -4.4640     0.0340     0.4310 c2         1 1X0      -0.146200
     10 H14          1.7610    -0.1620    -1.5350 h1         1 1X0       0.035700
     11 H15          2.7550    -2.1310    -0.8170 hn         1 1X0       0.324800
     12 H16          0.6290    -0.0300     1.2840 hc         1 1X0       0.037700
     13 H17          0.5480     1.2510     0.0940 hc         1 1X0       0.037700
     14 H18         -0.7470    -0.2400    -1.4360 hc         1 1X0       0.035700
     15 H19         -0.6780    -1.5220    -0.2480 hc         1 1X0       0.035700
     16 H20         -1.9230    -0.0950     1.3820 hc         1 1X0       0.033700
     17 H21         -1.9710     1.2100     0.2160 hc         1 1X0       0.033700
     18 H22         -3.3070    -0.1900    -1.3470 hc         1 1X0       0.040700
     19 H23         -3.2030    -1.5430    -0.2330 hc         1 1X0       0.040700
     20 H24         -4.5630    -0.2830     1.4670 ha         1 1X0       0.108000
     21 OXT          3.0990     1.6650    -0.2990 o          1 1X0      -0.841800
     22 H1           2.2180    -1.9730     0.6800 hn         1 1X0       0.324800
     23 C1          -5.3970     0.8220    -0.0900 c2         1 1X0      -0.245000
     24 H2          -6.2500     1.1530     0.4890 ha         1 1X0       0.103500
     25 H3          -5.3420     1.1690    -1.1160 ha         1 1X0       0.103500
@<TRIPOS>BOND
     1     1     2 1   
     2     1     3 1   
     3     1    21 1   
     4     2     4 1   
     5     2     5 1   
     6     2    10 1   
     7     4    11 1   
     8     4    22 1   
     9     5     6 1   
    10     5    12 1   
    11     5    13 1   
    12     6     7 1   
    13     6    14 1   
    14     6    15 1   
    15     7     8 1   
    16     7    16 1   
    17     7    17 1   
    18     8     9 1   
    19     8    18 1   
    20     8    19 1   
    21     9    20 1   
    22     9    23 2   
    23    23    24 1   
    24    23    25 1   
@<TRIPOS>SUBSTRUCTURE
     1 1X0         1 TEMP              0 ****  ****    0 ROOT
