@<TRIPOS>MOLECULE
1X1
   23    24     1     0     0
SMALL
abcg2


@<TRIPOS>ATOM
      1 C30          2.2930     0.1990     0.5470 c          1 1X1       0.730000
      2 N31          1.4830    -0.0220    -0.5960 n          1 1X1      -0.432800
      3 O32          2.9110    -0.7920     0.9900 o          1 1X1      -0.733000
      4 C33          0.4460     0.9230    -0.9210 c6         1 1X1       0.131300
      5 C34         -0.9070     0.5250    -0.3740 ca         1 1X1      -0.074300
      6 C35         -1.1550    -0.7910     0.0240 ca         1 1X1      -0.053300
      7 C36         -0.0690    -1.8350    -0.0540 c6         1 1X1      -0.067100
      8 C37          1.0930    -1.3730    -0.9260 c6         1 1X1       0.103000
      9 C38         -1.9260     1.4720    -0.2820 ca         1 1X1      -0.114000
     10 C39         -3.1800     1.1320     0.2010 ca         1 1X1      -0.131000
     11 C40         -3.4290    -0.1770     0.5970 ca         1 1X1      -0.134000
     12 C41         -2.4210    -1.1240     0.5050 ca         1 1X1      -0.123000
     13 H28          0.7270     1.9040    -0.5440 h1         1 1X1       0.049200
     14 H29          0.3650     1.0180    -2.0110 h1         1 1X1       0.049200
     15 H30          0.3050    -2.0470     0.9530 hc         1 1X1       0.045700
     16 H31         -0.4820    -2.7750    -0.4310 hc         1 1X1       0.045700
     17 H32          0.7930    -1.3990    -1.9800 h1         1 1X1       0.033200
     18 H33          1.9400    -2.0460    -0.8190 h1         1 1X1       0.033200
     19 H34         -1.7280     2.4940    -0.5880 ha         1 1X1       0.101000
     20 H35         -3.9560     1.8830     0.2720 ha         1 1X1       0.091000
     21 H36         -4.4040    -0.4580     0.9740 ha         1 1X1       0.089000
     22 H37         -2.6190    -2.1460     0.8090 ha         1 1X1       0.094000
     23 OXT          2.3490     1.3670     0.9850 o          1 1X1      -0.733000
@<TRIPOS>BOND
     1     1     2 1   
     2     1     3 1   
     3     1    23 1   
     4     2     4 1   
     5     2     8 1   
     6     4     5 1   
     7     4    13 1   
     8     4    14 1   
     9     5     6 ar  
    10     5     9 ar  
    11     6     7 1   
    12     6    12 ar  
    13     7     8 1   
    14     7    15 1   
    15     7    16 1   
    16     8    17 1   
    17     8    18 1   
    18     9    10 ar  
    19     9    19 1   
    20    10    11 ar  
    21    10    20 1   
    22    11    12 ar  
    23    11    21 1   
    24    12    22 1   
@<TRIPOS>SUBSTRUCTURE
     1 1X1         1 TEMP              0 ****  ****    0 ROOT
