@<TRIPOS>MOLECULE
1X1
   23    24     1     0     0
SMALL
No Charge or Current Charge


@<TRIPOS>ATOM
      1 C30          2.7290     0.3490    -0.8610 c          1 1X1       0.730000
      2 N31          1.4900    -0.0460    -0.3240 n          1 1X1      -0.432800
      3 O32          3.4620    -0.5100    -1.3230 o          1 1X1      -0.733000
      4 C33          0.5020     0.9580     0.1820 c6         1 1X1       0.131300
      5 C34         -0.9660     0.5380     0.0490 ca         1 1X1      -0.074300
      6 C35         -1.3130    -0.8110     0.2190 ca         1 1X1      -0.053300
      7 C36         -0.1970    -1.8040     0.5020 c6         1 1X1      -0.067100
      8 C37          1.0670    -1.4800    -0.3320 c6         1 1X1       0.103000
      9 C38         -1.9700     1.4890    -0.2160 ca         1 1X1      -0.114000
     10 C39         -3.3140     1.0870    -0.3130 ca         1 1X1      -0.131000
     11 C40         -3.6580    -0.2650    -0.1400 ca         1 1X1      -0.134000
     12 C41         -2.6580    -1.2150     0.1280 ca         1 1X1      -0.123000
     13 H28          0.7170     1.1570     1.2420 h1         1 1X1       0.049200
     14 H29          0.6330     1.9070    -0.3560 h1         1 1X1       0.049200
     15 H30          0.0520    -1.7680     1.5710 hc         1 1X1       0.045700
     16 H31         -0.5250    -2.8310     0.2910 hc         1 1X1       0.045700
     17 H32          0.8760    -1.7700    -1.3760 h1         1 1X1       0.033200
     18 H33          1.8940    -2.1070     0.0310 h1         1 1X1       0.033200
     19 H34         -1.7110     2.5380    -0.3440 ha         1 1X1       0.101000
     20 H35         -4.0880     1.8220    -0.5180 ha         1 1X1       0.091000
     21 H36         -4.6980    -0.5760    -0.2120 ha         1 1X1       0.089000
     22 H37         -2.9270    -2.2610     0.2620 ha         1 1X1       0.094000
     23 OXT          3.0310     1.5300    -0.8300 o          1 1X1      -0.733000
@<TRIPOS>BOND
     1     1     2 1   
     2     1     3 1   
     3     1    23 1   
     4     2     4 1   
     5     2     8 1   
     6     4     5 1   
     7     4    13 1   
     8     4    14 1   
     9     5     6 ar  
    10     5     9 ar  
    11     6     7 1   
    12     6    12 ar  
    13     7     8 1   
    14     7    15 1   
    15     7    16 1   
    16     8    17 1   
    17     8    18 1   
    18     9    10 ar  
    19     9    19 1   
    20    10    11 ar  
    21    10    20 1   
    22    11    12 ar  
    23    11    21 1   
    24    12    22 1   
@<TRIPOS>SUBSTRUCTURE
     1 1X1         1 TEMP              0 ****  ****    0 ROOT
