@<TRIPOS>MOLECULE
1X3
  103   109     1     0     0
SMALL
abcg2


@<TRIPOS>ATOM
      1 C21         -0.3870    -2.5470    -0.1760 c          1 1X3       0.629100
      2 O22         -1.5780    -2.5260     0.0540 o          1 1X3      -0.539000
      3 O23          0.1830    -2.7420    -1.3640 os         1 1X3      -0.465100
      4 C42         -0.5840    -2.7560    -2.5740 c5         1 1X3       0.194300
      5 C46         -1.6250    -3.8590    -2.7320 c5         1 1X3      -0.109900
      6 C45         -2.3650    -3.3940    -3.9830 c5         1 1X3      -0.079400
      7 C44         -2.4540    -1.8610    -3.8490 c5         1 1X3      -0.079400
      8 C43         -1.3130    -1.4460    -2.8960 c5         1 1X3      -0.109900
      9 C17         -0.3900    -0.9820     2.6900 c          1 1X3       0.617100
     10 C18          0.2400    -2.2780     2.1710 c3         1 1X3       0.058700
     11 O19         -0.8380    -1.0210     3.8290 o          1 1X3      -0.602100
     12 N20          0.5590    -2.3300     0.7660 ns         1 1X3      -0.502900
     13 C24          1.4840    -2.6320     2.9960 c3         1 1X3      -0.097400
     14 C25          1.9470    -4.0770     2.7920 c3         1 1X3      -0.077400
     15 C26          3.3840    -4.3450     3.2600 c3         1 1X3      -0.072400
     16 C27          4.4370    -4.1950     2.1590 c3         1 1X3      -0.074400
     17 C28          4.5050    -2.7990     1.5590 c3         1 1X3      -0.082400
     18 C1           3.8450    -0.4200    -2.2310 cx         1 1X3      -0.104400
     19 C2           3.3780     0.3530    -1.0200 cx         1 1X3      -0.066600
     20 C3           4.0630    -0.9970    -0.8830 cx         1 1X3      -0.055700
     21 N4           1.9820     0.3990    -0.7410 ns         1 1X3      -0.499900
     22 O5           5.3570     1.6640    -0.7540 o          1 1X3      -0.554100
     23 C6           4.1490     1.5970    -0.7160 c          1 1X3       0.672100
     24 C8           5.4090    -1.2480    -0.2280 c3         1 1X3      -0.044400
     25 C29          5.4680    -2.6480     0.3880 c3         1 1X3      -0.074400
     26 N7           3.3710     2.6880    -0.4170 ns         1 1X3      -0.576300
     27 S47          3.9700     4.1520     0.1430 s6         1 1X3       1.264800
     28 O49          2.7710     4.9260     0.4170 o          1 1X3      -0.523000
     29 O50          4.9120     3.8780     1.2080 o          1 1X3      -0.523000
     30 C48          4.8210     4.8500    -1.2200 cx         1 1X3      -0.439700
     31 C52          4.8020     6.3440    -1.3570 cx         1 1X3      -0.066400
     32 C51          4.0290     5.4980    -2.3100 cx         1 1X3      -0.066400
     33 N10         -0.5070     0.1500     1.9620 n          1 1X3      -0.388800
     34 C11          0.0250     0.5030     0.6570 c5         1 1X3       0.054700
     35 C14          1.5260     0.3360     0.5350 c          1 1X3       0.589100
     36 O15          2.2680     0.2560     1.4920 o          1 1X3      -0.557100
     37 C12         -0.3160     2.0000     0.5250 c5         1 1X3      -0.101400
     38 C13         -1.5760     2.1380     1.3510 c5         1 1X3       0.180300
     39 C9          -1.2710     1.2550     2.5440 c5         1 1X3       0.071000
     40 O16         -2.6290     1.5760     0.5680 os         1 1X3      -0.467100
     41 C30         -3.8940     1.7920     0.9530 c          1 1X3       0.645100
     42 N31         -4.7620     1.0340     0.2580 n          1 1X3      -0.404800
     43 O32         -4.2030     2.5930     1.8140 o          1 1X3      -0.542000
     44 C33         -4.3010    -0.0240    -0.6390 c6         1 1X3       0.160300
     45 C34         -5.3780    -1.0250    -0.9490 ca         1 1X3      -0.099300
     46 C35         -6.6930    -0.5910    -1.0910 ca         1 1X3      -0.075300
     47 C36         -6.9620     0.8530    -0.8030 c6         1 1X3      -0.050100
     48 C37         -6.1880     1.2790     0.4360 c6         1 1X3       0.120000
     49 C38         -5.0650    -2.3650    -1.1470 ca         1 1X3      -0.096000
     50 C39         -6.0530    -3.2690    -1.5120 ca         1 1X3      -0.113000
     51 C40         -7.3640    -2.8360    -1.6620 ca         1 1X3      -0.105000
     52 C41         -7.6820    -1.5030    -1.4420 ca         1 1X3      -0.105000
     53 H38          0.1850    -2.9170    -3.3330 h1         1 1X3       0.072700
     54 H45         -1.1710    -4.8450    -2.8430 hc         1 1X3       0.059450
     55 H46         -2.3000    -3.8930    -1.8790 hc         1 1X3       0.059450
     56 H43         -1.7940    -3.6630    -4.8740 hc         1 1X3       0.049200
     57 H44         -3.3470    -3.8580    -4.0830 hc         1 1X3       0.049200
     58 H41         -2.3780    -1.3700    -4.8180 hc         1 1X3       0.049200
     59 H42         -3.4170    -1.5730    -3.4260 hc         1 1X3       0.049200
     60 H39         -1.7220    -0.9910    -1.9940 hc         1 1X3       0.059450
     61 H40         -0.6360    -0.7190    -3.3490 hc         1 1X3       0.059450
     62 H14         -0.5260    -3.0330     2.3830 h1         1 1X3       0.087700
     63 H15          1.5200    -2.4860     0.5080 hn         1 1X3       0.330500
     64 H16          2.2790    -1.9220     2.7660 hc         1 1X3       0.076200
     65 H17          1.2480    -2.4860     4.0500 hc         1 1X3       0.076200
     66 H18          1.2540    -4.7290     3.3300 hc         1 1X3       0.038200
     67 H19          1.8610    -4.3740     1.7410 hc         1 1X3       0.038200
     68 H20          3.6320    -3.6850     4.0990 hc         1 1X3       0.043700
     69 H21          3.4470    -5.3620     3.6540 hc         1 1X3       0.043700
     70 H22          5.4180    -4.4670     2.5590 hc         1 1X3       0.037200
     71 H23          4.2210    -4.9200     1.3660 hc         1 1X3       0.037200
     72 H24          3.5060    -2.5150     1.2220 hc         1 1X3       0.041700
     73 H25          4.7630    -2.0740     2.3390 hc         1 1X3       0.041700
     74 H1           3.0760    -0.8450    -2.8650 hc         1 1X3       0.085200
     75 H2           4.6900    -0.0050    -2.7660 hc         1 1X3       0.085200
     76 H3           3.3210    -1.7540    -0.6500 hc         1 1X3       0.078700
     77 H4           1.3310     0.4550    -1.5100 hn         1 1X3       0.323500
     78 H6           6.2110    -1.1260    -0.9580 hc         1 1X3       0.065200
     79 H7           5.5930    -0.5190     0.5620 hc         1 1X3       0.065200
     80 H26          6.4900    -2.8460     0.7230 hc         1 1X3       0.040200
     81 H27          5.2450    -3.4010    -0.3750 hc         1 1X3       0.040200
     82 H5           2.3790     2.6740    -0.6180 hn         1 1X3       0.343500
     83 H47          5.7270     4.3080    -1.4630 h1         1 1X3       0.147700
     84 H50          4.2490     6.9250    -0.6320 hc         1 1X3       0.087200
     85 H51          5.7290     6.7950    -1.6850 hc         1 1X3       0.087200
     86 H48          4.4060     5.3580    -3.3140 hc         1 1X3       0.087200
     87 H49          2.9500     5.5050    -2.2290 hc         1 1X3       0.087200
     88 H10         -0.4850    -0.0350    -0.1450 h1         1 1X3       0.072700
     89 H11          0.4590     2.6190     0.9830 hc         1 1X3       0.072200
     90 H12         -0.4360     2.3120    -0.5110 hc         1 1X3       0.072200
     91 H13         -1.7960     3.1680     1.6290 h1         1 1X3       0.095700
     92 H8          -2.1660     0.8950     3.0500 h1         1 1X3       0.081200
     93 H9          -0.6760     1.8090     3.2750 h1         1 1X3       0.081200
     94 H28         -3.9460     0.4100    -1.5820 h1         1 1X3       0.061200
     95 H29         -3.4540    -0.5450    -0.1930 h1         1 1X3       0.061200
     96 H30         -6.6660     1.4770    -1.6520 hc         1 1X3       0.059700
     97 H31         -8.0250     1.0300    -0.6350 hc         1 1X3       0.059700
     98 H32         -6.5670     0.7340     1.3060 h1         1 1X3       0.060200
     99 H33         -6.3440     2.3400     0.6220 h1         1 1X3       0.060200
    100 H34         -4.0450    -2.7040    -1.0040 ha         1 1X3       0.132000
    101 H35         -5.8010    -4.3100    -1.6670 ha         1 1X3       0.113000
    102 H36         -8.1400    -3.5390    -1.9380 ha         1 1X3       0.113000
    103 H37         -8.7080    -1.1680    -1.5400 ha         1 1X3       0.112000
@<TRIPOS>BOND
     1     1     2 2   
     2     1     3 1   
     3     1    12 1   
     4     3     4 1   
     5     4     5 1   
     6     4     8 1   
     7     4    53 1   
     8     5     6 1   
     9     5    54 1   
    10     5    55 1   
    11     6     7 1   
    12     6    56 1   
    13     6    57 1   
    14     7     8 1   
    15     7    58 1   
    16     7    59 1   
    17     8    60 1   
    18     8    61 1   
    19     9    10 1   
    20     9    11 2   
    21     9    33 1   
    22    10    12 1   
    23    10    13 1   
    24    10    62 1   
    25    12    63 1   
    26    13    14 1   
    27    13    64 1   
    28    13    65 1   
    29    14    15 1   
    30    14    66 1   
    31    14    67 1   
    32    15    16 1   
    33    15    68 1   
    34    15    69 1   
    35    16    17 1   
    36    16    70 1   
    37    16    71 1   
    38    17    25 1   
    39    17    72 1   
    40    17    73 1   
    41    18    19 1   
    42    18    20 1   
    43    18    74 1   
    44    18    75 1   
    45    19    20 1   
    46    19    21 1   
    47    19    23 1   
    48    20    24 1   
    49    20    76 1   
    50    21    35 1   
    51    21    77 1   
    52    22    23 2   
    53    23    26 1   
    54    24    25 1   
    55    24    78 1   
    56    24    79 1   
    57    25    80 1   
    58    25    81 1   
    59    26    27 1   
    60    26    82 1   
    61    27    28 2   
    62    27    29 2   
    63    27    30 1   
    64    30    31 1   
    65    30    32 1   
    66    30    83 1   
    67    31    32 1   
    68    31    84 1   
    69    31    85 1   
    70    32    86 1   
    71    32    87 1   
    72    33    34 1   
    73    33    39 1   
    74    34    35 1   
    75    34    37 1   
    76    34    88 1   
    77    35    36 2   
    78    37    38 1   
    79    37    89 1   
    80    37    90 1   
    81    38    39 1   
    82    38    40 1   
    83    38    91 1   
    84    39    92 1   
    85    39    93 1   
    86    40    41 1   
    87    41    42 1   
    88    41    43 2   
    89    42    44 1   
    90    42    48 1   
    91    44    45 1   
    92    44    94 1   
    93    44    95 1   
    94    45    46 ar  
    95    45    49 ar  
    96    46    47 1   
    97    46    52 ar  
    98    47    48 1   
    99    47    96 1   
   100    47    97 1   
   101    48    98 1   
   102    48    99 1   
   103    49    50 ar  
   104    49   100 1   
   105    50    51 ar  
   106    50   101 1   
   107    51    52 ar  
   108    51   102 1   
   109    52   103 1   
@<TRIPOS>SUBSTRUCTURE
     1 1X3         1 TEMP              0 ****  ****    0 ROOT
