@<TRIPOS>MOLECULE
1X3
  103   109     1     0     0
SMALL
No Charge or Current Charge


@<TRIPOS>ATOM
      1 C21         -0.3590    -2.3610    -0.3170 c          1 1X3       0.629100
      2 O22         -1.5540    -2.5010    -0.1290 o          1 1X3      -0.539000
      3 O23          0.3370    -2.4700    -1.4920 os         1 1X3      -0.465100
      4 C42         -0.3640    -2.8300    -2.7220 c5         1 1X3       0.194300
      5 C46         -1.0290    -4.2370    -2.6320 c5         1 1X3      -0.109900
      6 C45         -2.1430    -4.0890    -3.6980 c5         1 1X3      -0.079400
      7 C44         -2.7670    -2.7370    -3.2670 c5         1 1X3      -0.079400
      8 C43         -1.5180    -1.8250    -3.0680 c5         1 1X3      -0.109900
      9 C17         -0.4130    -0.0820     2.2440 c          1 1X3       0.617100
     10 C18          0.1810    -1.5270     2.0050 c3         1 1X3       0.058700
     11 O19         -0.8010     0.2040     3.3720 o          1 1X3      -0.602100
     12 N20          0.5110    -1.8700     0.6080 ns         1 1X3      -0.502900
     13 C24          1.4080    -1.8020     2.9180 c3         1 1X3      -0.097400
     14 C25          1.8560    -3.2880     2.9680 c3         1 1X3      -0.077400
     15 C26          3.3440    -3.4850     3.3630 c3         1 1X3      -0.072400
     16 C27          4.3150    -3.6480     2.1620 c3         1 1X3      -0.074400
     17 C28          4.4010    -2.4400     1.1990 c3         1 1X3      -0.082400
     18 C1           3.8330    -0.3850    -2.9110 cx         1 1X3      -0.104400
     19 C2           3.5650     0.3750    -1.6280 cx         1 1X3      -0.066600
     20 C3           3.9660    -1.0970    -1.5870 cx         1 1X3      -0.055700
     21 N4           2.1640     0.6350    -1.3220 ns         1 1X3      -0.499900
     22 O5           5.1310     2.1600    -2.1360 o          1 1X3      -0.554100
     23 C6           4.5890     1.4710    -1.2850 c          1 1X3       0.672100
     24 C8           5.3340    -1.5780    -1.0820 c3         1 1X3      -0.044400
     25 C29          5.2520    -2.7390    -0.0600 c3         1 1X3      -0.074400
     26 N7           4.8170     1.6180     0.0390 ns         1 1X3      -0.576300
     27 S47          5.6040     2.8670     0.7940 s6         1 1X3       1.264800
     28 O49          5.5290     2.6200     2.2370 o          1 1X3      -0.523000
     29 O50          6.8990     3.0780     0.1410 o          1 1X3      -0.523000
     30 C48          4.5260     4.3160     0.4000 cx         1 1X3      -0.439700
     31 C52          4.2700     5.4110     1.4170 cx         1 1X3      -0.066400
     32 C51          3.1560     4.4560     1.0360 cx         1 1X3      -0.066400
     33 N10         -0.6100     0.8840     1.2110 n          1 1X3      -0.388800
     34 C11          0.0980     0.9340    -0.1100 c5         1 1X3       0.054700
     35 C14          1.6500     0.8050    -0.0470 c          1 1X3       0.589100
     36 O15          2.3440     0.7980     0.9580 o          1 1X3      -0.557100
     37 C12         -0.2600     2.3580    -0.6440 c5         1 1X3      -0.101400
     38 C13         -1.6070     2.6780     0.0410 c5         1 1X3       0.180300
     39 C9          -1.3620     2.1380     1.4750 c5         1 1X3       0.071000
     40 O16         -2.6320     1.8540    -0.5830 os         1 1X3      -0.467100
     41 C30         -3.9210     2.2280    -0.2900 c          1 1X3       0.645100
     42 N31         -4.8590     1.2640    -0.6900 n          1 1X3      -0.404800
     43 O32         -4.2400     3.2850     0.2380 o          1 1X3      -0.542000
     44 C33         -4.4620    -0.1400    -1.0200 c6         1 1X3       0.160300
     45 C34         -5.5350    -1.1930    -0.7020 ca         1 1X3      -0.099300
     46 C35         -6.8900    -0.8700    -0.8790 ca         1 1X3      -0.075300
     47 C36         -7.2330     0.5440    -1.3160 c6         1 1X3      -0.050100
     48 C37         -6.3180     1.5650    -0.6020 c6         1 1X3       0.120000
     49 C38         -5.1830    -2.4780    -0.2460 ca         1 1X3      -0.096000
     50 C39         -6.1800    -3.4360     0.0100 ca         1 1X3      -0.113000
     51 C40         -7.5340    -3.1120    -0.1850 ca         1 1X3      -0.105000
     52 C41         -7.8900    -1.8270    -0.6270 ca         1 1X3      -0.105000
     53 H38          0.3720    -2.8260    -3.5380 h1         1 1X3       0.072700
     54 H45         -0.3230    -5.0370    -2.8820 hc         1 1X3       0.059450
     55 H46         -1.4490    -4.4760    -1.6500 hc         1 1X3       0.059450
     56 H43         -1.7360    -4.0460    -4.7160 hc         1 1X3       0.049200
     57 H44         -2.8660    -4.9120    -3.6650 hc         1 1X3       0.049200
     58 H41         -3.4600    -2.3370    -4.0160 hc         1 1X3       0.049200
     59 H42         -3.3320    -2.8480    -2.3360 hc         1 1X3       0.049200
     60 H39         -1.6870    -1.0550    -2.3080 hc         1 1X3       0.059450
     61 H40         -1.2800    -1.2910    -3.9950 hc         1 1X3       0.059450
     62 H14         -0.6200    -2.2080     2.3230 h1         1 1X3       0.087700
     63 H15          1.4710    -1.7940     0.3000 hn         1 1X3       0.330500
     64 H16          2.2410    -1.1670     2.5990 hc         1 1X3       0.076200
     65 H17          1.1770    -1.4860     3.9430 hc         1 1X3       0.076200
     66 H18          1.2230    -3.8090     3.6970 hc         1 1X3       0.038200
     67 H19          1.6750    -3.7840     2.0070 hc         1 1X3       0.038200
     68 H20          3.6790    -2.6610     4.0050 hc         1 1X3       0.043700
     69 H21          3.4180    -4.3940     3.9730 hc         1 1X3       0.043700
     70 H22          5.3190    -3.8600     2.5510 hc         1 1X3       0.037200
     71 H23          4.0120    -4.5360     1.5930 hc         1 1X3       0.037200
     72 H24          3.3910    -2.1690     0.8800 hc         1 1X3       0.041700
     73 H25          4.8150    -1.5740     1.7310 hc         1 1X3       0.041700
     74 H1           2.9850    -0.6470    -3.5390 hc         1 1X3       0.085200
     75 H2           4.7460    -0.1700    -3.4610 hc         1 1X3       0.085200
     76 H3           3.1800    -1.8260    -1.4040 hc         1 1X3       0.078700
     77 H4           1.4940     0.6590    -2.0830 hn         1 1X3       0.323500
     78 H6           5.9290    -1.9230    -1.9360 hc         1 1X3       0.065200
     79 H7           5.9060    -0.7590    -0.6330 hc         1 1X3       0.065200
     80 H26          6.2690    -3.0070     0.2510 hc         1 1X3       0.040200
     81 H27          4.8390    -3.6200    -0.5670 hc         1 1X3       0.040200
     82 H5           4.2120     1.1230     0.6760 hn         1 1X3       0.343500
     83 H47          4.6520     4.5690    -0.6510 h1         1 1X3       0.147700
     84 H50          4.7000     5.3110     2.4120 hc         1 1X3       0.087200
     85 H51          4.2010     6.4360     1.0580 hc         1 1X3       0.087200
     86 H48          2.3460     4.8470     0.4240 hc         1 1X3       0.087200
     87 H49          2.8480     3.7190     1.7760 hc         1 1X3       0.087200
     88 H10         -0.3040     0.1780    -0.7930 h1         1 1X3       0.072700
     89 H11          0.4920     3.0990    -0.3480 hc         1 1X3       0.072200
     90 H12         -0.3280     2.3940    -1.7380 hc         1 1X3       0.072200
     91 H13         -1.8590     3.7470    -0.0080 h1         1 1X3       0.095700
     92 H8          -2.3030     1.9550     2.0110 h1         1 1X3       0.081200
     93 H9          -0.7590     2.8370     2.0690 h1         1 1X3       0.081200
     94 H28         -4.2160    -0.1940    -2.0900 h1         1 1X3       0.061200
     95 H29         -3.5500    -0.4040    -0.4660 h1         1 1X3       0.061200
     96 H30         -7.1050     0.6310    -2.4030 hc         1 1X3       0.059700
     97 H31         -8.2840     0.7770    -1.1020 hc         1 1X3       0.059700
     98 H32         -6.5970     1.6030     0.4610 h1         1 1X3       0.060200
     99 H33         -6.5080     2.5640    -1.0200 h1         1 1X3       0.060200
    100 H34         -4.1400    -2.7390    -0.0900 ha         1 1X3       0.132000
    101 H35         -5.9030    -4.4280     0.3580 ha         1 1X3       0.113000
    102 H36         -8.3050    -3.8530     0.0120 ha         1 1X3       0.113000
    103 H37         -8.9390    -1.5750    -0.7650 ha         1 1X3       0.112000
@<TRIPOS>BOND
     1     1     2 2   
     2     1     3 1   
     3     1    12 1   
     4     3     4 1   
     5     4     5 1   
     6     4     8 1   
     7     4    53 1   
     8     5     6 1   
     9     5    54 1   
    10     5    55 1   
    11     6     7 1   
    12     6    56 1   
    13     6    57 1   
    14     7     8 1   
    15     7    58 1   
    16     7    59 1   
    17     8    60 1   
    18     8    61 1   
    19     9    10 1   
    20     9    11 2   
    21     9    33 1   
    22    10    12 1   
    23    10    13 1   
    24    10    62 1   
    25    12    63 1   
    26    13    14 1   
    27    13    64 1   
    28    13    65 1   
    29    14    15 1   
    30    14    66 1   
    31    14    67 1   
    32    15    16 1   
    33    15    68 1   
    34    15    69 1   
    35    16    17 1   
    36    16    70 1   
    37    16    71 1   
    38    17    25 1   
    39    17    72 1   
    40    17    73 1   
    41    18    19 1   
    42    18    20 1   
    43    18    74 1   
    44    18    75 1   
    45    19    20 1   
    46    19    21 1   
    47    19    23 1   
    48    20    24 1   
    49    20    76 1   
    50    21    35 1   
    51    21    77 1   
    52    22    23 2   
    53    23    26 1   
    54    24    25 1   
    55    24    78 1   
    56    24    79 1   
    57    25    80 1   
    58    25    81 1   
    59    26    27 1   
    60    26    82 1   
    61    27    28 2   
    62    27    29 2   
    63    27    30 1   
    64    30    31 1   
    65    30    32 1   
    66    30    83 1   
    67    31    32 1   
    68    31    84 1   
    69    31    85 1   
    70    32    86 1   
    71    32    87 1   
    72    33    34 1   
    73    33    39 1   
    74    34    35 1   
    75    34    37 1   
    76    34    88 1   
    77    35    36 2   
    78    37    38 1   
    79    37    89 1   
    80    37    90 1   
    81    38    39 1   
    82    38    40 1   
    83    38    91 1   
    84    39    92 1   
    85    39    93 1   
    86    40    41 1   
    87    41    42 1   
    88    41    43 2   
    89    42    44 1   
    90    42    48 1   
    91    44    45 1   
    92    44    94 1   
    93    44    95 1   
    94    45    46 ar  
    95    45    49 ar  
    96    46    47 1   
    97    46    52 ar  
    98    47    48 1   
    99    47    96 1   
   100    47    97 1   
   101    48    98 1   
   102    48    99 1   
   103    49    50 ar  
   104    49   100 1   
   105    50    51 ar  
   106    50   101 1   
   107    51    52 ar  
   108    51   102 1   
   109    52   103 1   
@<TRIPOS>SUBSTRUCTURE
     1 1X3         1 TEMP              0 ****  ****    0 ROOT
