@<TRIPOS>MOLECULE
1X5
   42    44     1     0     0
SMALL
abcg2


@<TRIPOS>ATOM
      1 CAA         -1.5290     0.1860     0.2280 ca         1 1X5      -0.034000
      2 CAB         -1.1630     1.4600    -0.2540 ca         1 1X5      -0.158600
      3 CAC         -0.5510    -0.5850     0.8580 ca         1 1X5      -0.136000
      4 NAD         -2.8500    -0.2330     0.0460 ns         1 1X5      -0.147000
      5 CAE          0.1440     1.9030    -0.0830 ca         1 1X5      -0.126000
      6 CAF         -2.1340     2.4020    -0.9670 c          1 1X5       0.721600
      7 CAG          0.7440    -0.1230     1.0160 ca         1 1X5      -0.168000
      8 CAH          1.1290     1.1440     0.5570 ca         1 1X5       0.257000
      9 OAI         -1.6900     3.4890    -1.3630 o          1 1X5      -0.710500
     10 OAJ         -3.3250     2.0150    -1.1060 o          1 1X5      -0.710500
     11 CAK          3.9130    -0.3300     0.3610 ca         1 1X5      -0.151300
     12 CAL          4.6320    -1.4050     0.8720 ca         1 1X5      -0.081000
     13 CAM          3.6840    -0.3140    -1.0100 ca         1 1X5       0.358900
     14 CAN          3.4330     0.7760     1.2740 c3         1 1X5       0.293100
     15 CAO          5.0880    -2.3890     0.0120 ca         1 1X5      -0.173000
     16 NAP          4.1160    -1.2530    -1.8450 nb         1 1X5      -0.667000
     17 NAQ          2.4100     1.6270     0.7300 nh         1 1X5      -0.846400
     18 CAR          4.8050    -2.2680    -1.3410 ca         1 1X5       0.324900
     19 CAS          2.7890     2.8840     0.1310 c3         1 1X5       0.228100
     20 CAT         -4.8860    -1.4470     0.0100 cx         1 1X5      -0.212700
     21 CAU         -3.4440    -1.3930     0.3820 c          1 1X5       0.629100
     22 CAV         -5.8140    -2.2440     0.8880 cx         1 1X5      -0.116900
     23 CAW         -5.4460    -2.7670    -0.4530 cx         1 1X5      -0.116900
     24 OAX         -2.8900    -2.3360     0.9380 o          1 1X5      -0.660100
     25 HAC         -0.7930    -1.5650     1.2320 ha         1 1X5       0.129000
     26 HNAD        -3.3880     0.5060    -0.4360 hn         1 1X5       0.229000
     27 HAE          0.3780     2.8820    -0.4730 ha         1 1X5       0.132000
     28 HAG          1.4480    -0.7800     1.5080 ha         1 1X5       0.090000
     29 HAL          4.8310    -1.4730     1.9350 ha         1 1X5       0.109000
     30 HAM          3.1190     0.4960    -1.4590 h4         1 1X5       0.037100
     31 HAN          3.1030     0.3390     2.2220 h1         1 1X5       0.046200
     32 HANA         4.2870     1.4040     1.5360 h1         1 1X5       0.046200
     33 HAO          5.6480    -3.2390     0.3790 ha         1 1X5       0.111000
     34 HAR          5.1460    -3.0220    -2.0420 h4         1 1X5       0.008100
     35 HAS          2.1960     3.7150     0.5230 h1         1 1X5       0.028033
     36 HASA         3.8320     3.0880     0.3630 h1         1 1X5       0.028033
     37 HASB         2.6850     2.8890    -0.9590 h1         1 1X5       0.028033
     38 HAT         -5.3020    -0.5580    -0.4510 hc         1 1X5       0.101700
     39 HAV         -5.3820    -2.7220     1.7580 hc         1 1X5       0.069950
     40 HAVA        -6.8100    -1.8480     1.0350 hc         1 1X5       0.069950
     41 HAW         -6.1840    -2.7350    -1.2420 hc         1 1X5       0.069950
     42 HAWA        -4.7630    -3.6050    -0.5040 hc         1 1X5       0.069950
@<TRIPOS>BOND
     1     1     2 ar  
     2     1     3 ar  
     3     1     4 1   
     4     2     5 ar  
     5     2     6 1   
     6     3     7 ar  
     7     3    25 1   
     8     4    21 1   
     9     4    26 1   
    10     5     8 ar  
    11     5    27 1   
    12     6     9 1   
    13     6    10 1   
    14     7     8 ar  
    15     7    28 1   
    16     8    17 1   
    17    11    12 ar  
    18    11    13 ar  
    19    11    14 1   
    20    12    15 ar  
    21    12    29 1   
    22    13    16 ar  
    23    13    30 1   
    24    14    17 1   
    25    14    31 1   
    26    14    32 1   
    27    15    18 ar  
    28    15    33 1   
    29    16    18 ar  
    30    17    19 1   
    31    18    34 1   
    32    19    35 1   
    33    19    36 1   
    34    19    37 1   
    35    20    21 1   
    36    20    22 1   
    37    20    23 1   
    38    20    38 1   
    39    21    24 2   
    40    22    23 1   
    41    22    39 1   
    42    22    40 1   
    43    23    41 1   
    44    23    42 1   
@<TRIPOS>SUBSTRUCTURE
     1 1X5         1 TEMP              0 ****  ****    0 ROOT
