@<TRIPOS>MOLECULE
1X5
   42    44     1     0     0
SMALL
No Charge or Current Charge


@<TRIPOS>ATOM
      1 CAA         -1.3060    -0.1380     0.2220 ca         1 1X5      -0.034000
      2 CAB         -0.9740     1.0990    -0.3980 ca         1 1X5      -0.158600
      3 CAC         -0.3880    -0.7260     1.1180 ca         1 1X5      -0.136000
      4 NAD         -2.5610    -0.7440    -0.0680 ns         1 1X5      -0.147000
      5 CAE          0.2790     1.6940    -0.1110 ca         1 1X5      -0.126000
      6 CAF         -1.9100     1.8010    -1.3720 c          1 1X5       0.721600
      7 CAG          0.8460    -0.1140     1.3890 ca         1 1X5      -0.168000
      8 CAH          1.1960     1.1000     0.7750 ca         1 1X5       0.257000
      9 OAI         -1.4150     2.4580    -2.2760 o          1 1X5      -0.710500
     10 OAJ         -3.1180     1.7010    -1.2080 o          1 1X5      -0.710500
     11 CAK          3.8650    -0.1440     0.1200 ca         1 1X5      -0.151300
     12 CAL          3.9540    -1.5120     0.4360 ca         1 1X5      -0.081000
     13 CAM          3.9480     0.2460    -1.2290 ca         1 1X5       0.358900
     14 CAN          3.6820     0.9080     1.2030 c3         1 1X5       0.293100
     15 CAO          4.1230    -2.4250    -0.6180 ca         1 1X5      -0.173000
     16 NAP          4.1160    -0.6330    -2.2480 nb         1 1X5      -0.667000
     17 NAQ          2.4460     1.7120     1.0470 nh         1 1X5      -0.846400
     18 CAR          4.1990    -1.9470    -1.9370 ca         1 1X5       0.324900
     19 CAS          2.5890     3.1850     1.0880 c3         1 1X5       0.228100
     20 CAT         -4.5120    -2.1630    -0.2880 cx         1 1X5      -0.212700
     21 CAU         -3.0820    -2.0040     0.1780 c          1 1X5       0.629100
     22 CAV         -5.5790    -1.2460     0.2800 cx         1 1X5      -0.116900
     23 CAW         -5.5470    -2.7010     0.6810 cx         1 1X5      -0.116900
     24 OAX         -2.4680    -2.9320     0.6960 o          1 1X5      -0.660100
     25 HAC         -0.6180    -1.6570     1.6280 ha         1 1X5       0.129000
     26 HNAD        -3.2090    -0.1190    -0.5340 hn         1 1X5       0.229000
     27 HAE          0.5430     2.6300    -0.5940 ha         1 1X5       0.132000
     28 HAG          1.5260    -0.5870     2.0910 ha         1 1X5       0.090000
     29 HAL          3.8920    -1.8590     1.4650 ha         1 1X5       0.109000
     30 HAM          3.8830     1.2980    -1.5080 h4         1 1X5       0.037100
     31 HAN          3.6810     0.4230     2.1880 h1         1 1X5       0.046200
     32 HANA         4.5620     1.5650     1.1810 h1         1 1X5       0.046200
     33 HAO          4.1960    -3.4910    -0.4210 ha         1 1X5       0.111000
     34 HAR          4.3310    -2.6350    -2.7700 h4         1 1X5       0.008100
     35 HAS          1.6510     3.6550     1.4120 h1         1 1X5       0.028033
     36 HASA         3.3710     3.4800     1.8000 h1         1 1X5       0.028033
     37 HASB         2.8530     3.5730     0.0950 h1         1 1X5       0.028033
     38 HAT         -4.6180    -2.4550    -1.3300 hc         1 1X5       0.101700
     39 HAV         -5.2870    -0.5120     1.0290 hc         1 1X5       0.069950
     40 HAVA        -6.3760    -0.9210    -0.3850 hc         1 1X5       0.069950
     41 HAW         -6.3230    -3.3530     0.2850 hc         1 1X5       0.069950
     42 HAWA        -5.2280    -2.9390     1.6940 hc         1 1X5       0.069950
@<TRIPOS>BOND
     1     1     2 ar  
     2     1     3 ar  
     3     1     4 1   
     4     2     5 ar  
     5     2     6 1   
     6     3     7 ar  
     7     3    25 1   
     8     4    21 1   
     9     4    26 1   
    10     5     8 ar  
    11     5    27 1   
    12     6     9 1   
    13     6    10 1   
    14     7     8 ar  
    15     7    28 1   
    16     8    17 1   
    17    11    12 ar  
    18    11    13 ar  
    19    11    14 1   
    20    12    15 ar  
    21    12    29 1   
    22    13    16 ar  
    23    13    30 1   
    24    14    17 1   
    25    14    31 1   
    26    14    32 1   
    27    15    18 ar  
    28    15    33 1   
    29    16    18 ar  
    30    17    19 1   
    31    18    34 1   
    32    19    35 1   
    33    19    36 1   
    34    19    37 1   
    35    20    21 1   
    36    20    22 1   
    37    20    23 1   
    38    20    38 1   
    39    21    24 2   
    40    22    23 1   
    41    22    39 1   
    42    22    40 1   
    43    23    41 1   
    44    23    42 1   
@<TRIPOS>SUBSTRUCTURE
     1 1X5         1 TEMP              0 ****  ****    0 ROOT
