@<TRIPOS>MOLECULE
1X6
   21    20     1     0     0
SMALL
No Charge or Current Charge


@<TRIPOS>ATOM
      1 N           11.4880    19.7310    58.5550 n8         1 1X6      -1.004200
      2 CA          10.0470    19.5160    58.1310 c3         1 1X6       0.001500
      3 C            9.8320    18.7430    56.7650 c          1 1X6       0.723000
      4 O            9.5950    19.3810    55.7460 o          1 1X6      -0.727500
      5 CB           9.1920    20.8230    58.1430 c3         1 1X6       0.186600
      6 OG           9.1600    21.3750    59.4820 os         1 1X6      -0.468100
      7 C7          10.0420    22.3660    59.8210 c          1 1X6       0.626300
      8 O8          10.8040    22.9310    59.0520 o          1 1X6      -0.531000
      9 C6           9.8960    22.7250    61.2510 ce         1 1X6      -0.413200
     10 C5          10.6150    23.6890    61.8460 c2         1 1X6       0.092000
     11 N4          10.4420    23.9890    63.1930 nv         1 1X6      -1.001000
     12 OXT          9.9050    17.5210    56.7820 o          1 1X6      -0.727500
     13 HN1         11.5010    20.1710    59.4830 hn         1 1X6       0.386500
     14 HN2         11.9340    18.8180    58.7080 hn         1 1X6       0.386500
     15 HA           9.6130    18.8670    58.9040 h1         1 1X6       0.006700
     16 HB1C         9.5690    21.5430    57.4040 h1         1 1X6       0.064200
     17 HB2C         8.1700    20.5590    57.8390 h1         1 1X6       0.064200
     18 H6           9.1580    22.1490    61.8040 ha         1 1X6       0.187000
     19 H5          11.3650    24.2720    61.2920 h4         1 1X6       0.196000
     20 H41N        10.8120    24.8790    63.5360 hn         1 1X6       0.476000
     21 H42N         9.5860    23.6710    63.6480 hn         1 1X6       0.476000
@<TRIPOS>BOND
     1     1     2 1   
     2     1    13 1   
     3     1    14 1   
     4     2     3 1   
     5     2     5 1   
     6     2    15 1   
     7     3     4 1   
     8     3    12 1   
     9     5     6 1   
    10     5    16 1   
    11     5    17 1   
    12     6     7 1   
    13     7     8 2   
    14     7     9 1   
    15     9    10 2   
    16     9    18 1   
    17    10    11 1   
    18    10    19 1   
    19    11    20 1   
    20    11    21 1   
@<TRIPOS>SUBSTRUCTURE
     1 1X6         1 TEMP              0 ****  ****    0 ROOT
