@<TRIPOS>MOLECULE
1X6
   21    20     1     0     0
SMALL
abcg2


@<TRIPOS>ATOM
      1 N           11.2390    19.4650    58.8090 n8         1 1X6      -1.004200
      2 CA           9.9190    19.4510    58.2020 c3         1 1X6       0.001500
      3 C            9.9500    18.8250    56.7810 c          1 1X6       0.723000
      4 O            8.9520    19.0470    56.0690 o          1 1X6      -0.727500
      5 CB           9.3570    20.8620    58.1400 c3         1 1X6       0.186600
      6 OG           9.2640    21.3940    59.4640 os         1 1X6      -0.468100
      7 C7          10.0080    22.4470    59.8280 c          1 1X6       0.626300
      8 O8          10.7160    23.0660    59.0550 o          1 1X6      -0.531000
      9 C6           9.8350    22.7360    61.2350 ce         1 1X6      -0.413200
     10 C5          10.4960    23.7810    61.7980 c2         1 1X6       0.092000
     11 N4          10.4430    24.1600    63.0750 nv         1 1X6      -1.001000
     12 OXT         10.9440    18.1330    56.4910 o          1 1X6      -0.727500
     13 HN1         11.1700    19.3580    59.8110 hn         1 1X6       0.386500
     14 HN2         11.7470    18.6640    58.4570 hn         1 1X6       0.386500
     15 HA           9.2070    18.8360    58.7790 h1         1 1X6       0.006700
     16 HB1C         9.9850    21.4950    57.5130 h1         1 1X6       0.064200
     17 HB2C         8.3480    20.8580    57.7280 h1         1 1X6       0.064200
     18 H6           9.1800    22.1080    61.8260 ha         1 1X6       0.187000
     19 H5          11.1450    24.3900    61.1800 h4         1 1X6       0.196000
     20 H41N        10.9560    24.9600    63.3960 hn         1 1X6       0.476000
     21 H42N         9.8640    23.6830    63.7460 hn         1 1X6       0.476000
@<TRIPOS>BOND
     1     1     2 1   
     2     1    13 1   
     3     1    14 1   
     4     2     3 1   
     5     2     5 1   
     6     2    15 1   
     7     3     4 1   
     8     3    12 1   
     9     5     6 1   
    10     5    16 1   
    11     5    17 1   
    12     6     7 1   
    13     7     8 2   
    14     7     9 1   
    15     9    10 2   
    16     9    18 1   
    17    10    11 1   
    18    10    19 1   
    19    11    20 1   
    20    11    21 1   
@<TRIPOS>SUBSTRUCTURE
     1 1X6         1 TEMP              0 ****  ****    0 ROOT
