@<TRIPOS>MOLECULE
1X7
   20    21     1     0     0
SMALL
bcc


@<TRIPOS>ATOM
      1 C1           0.9140     1.2360    -0.0140 cc         1 1X7      -0.070200
      2 C2          -0.5160     1.2300    -0.0130 ca         1 1X7      -0.278100
      3 C3          -1.0580    -0.0530     0.0090 ca         1 1X7       0.045900
      4 N6          -2.7350     2.1340    -0.0280 nb         1 1X7      -0.784000
      5 C7          -1.4180     2.3270    -0.0290 ca         1 1X7       0.756200
      6 C13          1.3980    -0.0240     0.0090 cd         1 1X7      -0.094700
      7 C4          -2.4490    -0.2590     0.0060 ca         1 1X7      -0.325900
      8 C5          -3.2130     0.8950    -0.0120 ca         1 1X7       0.510200
      9 N8          -0.9750     3.5920    -0.0670 nv         1 1X7      -0.956500
     10 O10         -2.1540    -2.5720     0.0700 o          1 1X7      -0.626100
     11 N11         -4.2820    -1.8390     0.0180 nt         1 1X7      -0.665000
     12 S12          0.1750    -1.2600     0.0340 ss         1 1X7       0.137500
     13 BR1          3.1870    -0.5300     0.0200 br         1 1X7      -0.028700
     14 H1           1.5350     2.1190    -0.0340 ha         1 1X7       0.154000
     15 H2          -4.2970     0.8370    -0.0110 h4         1 1X7       0.008100
     16 H3          -1.6370     4.3420     0.0400 hn         1 1X7       0.441800
     17 H4          -0.0070     3.8160     0.0830 hn         1 1X7       0.441800
     18 H5          -4.9540    -1.0960    -0.0510 hn         1 1X7       0.316000
     19 H6          -4.6440    -2.7790     0.0280 hn         1 1X7       0.316000
     20 C9          -2.9580    -1.6420     0.0330 c          1 1X7       0.702700
@<TRIPOS>BOND
     1     1     2 1   
     2     1     6 2   
     3     1    14 1   
     4     2     3 ar  
     5     2     5 ar  
     6     3     7 ar  
     7     3    12 1   
     8     4     5 ar  
     9     4     8 ar  
    10     5     9 1   
    11     6    12 1   
    12     6    13 1   
    13     7     8 ar  
    14     7    20 1   
    15     8    15 1   
    16     9    16 1   
    17     9    17 1   
    18    10    20 2   
    19    11    18 1   
    20    11    19 1   
    21    11    20 1   
@<TRIPOS>SUBSTRUCTURE
     1 1X7         1 TEMP              0 ****  ****    0 ROOT
