@<TRIPOS>MOLECULE
1X7
   20    21     1     0     0
SMALL
No Charge or Current Charge


@<TRIPOS>ATOM
      1 C1           0.9730     1.2680    -0.0460 cc         1 1X7      -0.120200
      2 C2          -0.4770     1.2020    -0.0480 ca         1 1X7      -0.212800
      3 C3          -0.9670    -0.0920    -0.0010 ca         1 1X7      -0.081000
      4 N6          -2.6980     2.1330    -0.0980 nb         1 1X7      -0.784000
      5 C7          -1.3830     2.2690    -0.0980 ca         1 1X7       0.690900
      6 C13          1.5230     0.0020     0.0080 cd         1 1X7      -0.094700
      7 C4          -2.3720    -0.2920    -0.0040 ca         1 1X7      -0.260600
      8 C5          -3.1820     0.8670    -0.0550 ca         1 1X7       0.444900
      9 N8          -1.0470     3.5570    -0.1250 nv         1 1X7      -1.066900
     10 O10         -2.3740    -2.6920     0.0890 o          1 1X7      -0.626100
     11 N11         -4.3580    -1.7370     0.0350 nt         1 1X7      -0.598000
     12 S12          0.3300    -1.3250     0.0570 ss         1 1X7       0.264400
     13 Br1          3.3600    -0.4240     0.0250 br         1 1X7      -0.028700
     14 H1           1.5700     2.1770    -0.0910 ha         1 1X7       0.204000
     15 H2          -4.2680     0.7980    -0.0590 h4         1 1X7       0.008100
     16 H3          -1.8230     4.1700     0.0840 hn         1 1X7       0.497000
     17 H4          -0.1660     3.8020     0.3090 hn         1 1X7       0.497000
     18 H5          -4.9270    -0.9060    -0.0020 hn         1 1X7       0.316000
     19 H6          -4.7890    -2.6480     0.0670 hn         1 1X7       0.316000
     20 C9          -3.0110    -1.6550     0.0440 c          1 1X7       0.635700
@<TRIPOS>BOND
     1     1     2 1   
     2     1     6 2   
     3     1    14 1   
     4     2     3 ar  
     5     2     5 ar  
     6     3     7 ar  
     7     3    12 1   
     8     4     5 ar  
     9     4     8 ar  
    10     5     9 1   
    11     6    12 1   
    12     6    13 1   
    13     7     8 ar  
    14     7    20 1   
    15     8    15 1   
    16     9    16 1   
    17     9    17 1   
    18    10    20 2   
    19    11    18 1   
    20    11    19 1   
    21    11    20 1   
@<TRIPOS>SUBSTRUCTURE
     1 1X7         1 TEMP              0 ****  ****    0 ROOT
