@<TRIPOS>MOLECULE
1X8
   24    25     1     0     0
SMALL
No Charge or Current Charge


@<TRIPOS>ATOM
      1 C1           1.5110     1.1990    -0.0440 cc         1 1X8      -0.085200
      2 C2           0.0610     1.1980    -0.0390 ca         1 1X8      -0.226800
      3 C3          -0.4860    -0.0690     0.0060 ca         1 1X8      -0.063000
      4 C4          -1.8970    -0.2070     0.0070 ca         1 1X8      -0.266600
      5 C5          -2.6540     0.9860    -0.0400 ca         1 1X8       0.449900
      6 N6          -2.1140     2.2290    -0.0820 nb         1 1X8      -0.788000
      7 C7          -0.7950     2.3040    -0.0850 ca         1 1X8       0.700900
      8 N8          -0.4040     3.5750    -0.1090 nv         1 1X8      -1.070900
      9 C9          -2.5970    -1.5400     0.0540 c          1 1X8       0.637700
     10 O10         -2.0080    -2.6050     0.0960 o          1 1X8      -0.629100
     11 N11         -3.9460    -1.5600     0.0500 nt         1 1X8      -0.598000
     12 S12          0.7550    -1.3530     0.0610 ss         1 1X8       0.207400
     13 C13          2.0210    -0.0910     0.0030 cd         1 1X8      -0.197600
     14 C14          3.4720    -0.3790    -0.0030 c          1 1X8       0.648300
     15 O15          4.3390     0.4780    -0.0460 o          1 1X8      -0.609100
     16 N16          3.8140    -1.6830     0.0420 nt         1 1X8      -0.604000
     17 H1           2.1400     2.0870    -0.0950 ha         1 1X8       0.214000
     18 H2          -3.7430     0.9660    -0.0410 h4         1 1X8       0.007100
     19 H3          -1.1600     4.2160     0.0940 hn         1 1X8       0.504000
     20 H4           0.4740     3.7830     0.3480 hn         1 1X8       0.504000
     21 H5          -4.4770    -0.7040     0.0160 hn         1 1X8       0.316000
     22 H6          -4.4180    -2.4520     0.0810 hn         1 1X8       0.316000
     23 H7           3.1020    -2.3950     0.0780 hn         1 1X8       0.317500
     24 H8           4.7910    -1.9330     0.0400 hn         1 1X8       0.317500
@<TRIPOS>BOND
     1     1     2 1   
     2     1    13 2   
     3     1    17 1   
     4     2     3 ar  
     5     2     7 ar  
     6     3     4 ar  
     7     3    12 1   
     8     4     5 ar  
     9     4     9 1   
    10     5     6 ar  
    11     5    18 1   
    12     6     7 ar  
    13     7     8 1   
    14     8    19 1   
    15     8    20 1   
    16     9    10 2   
    17     9    11 1   
    18    11    21 1   
    19    11    22 1   
    20    12    13 1   
    21    13    14 1   
    22    14    15 2   
    23    14    16 1   
    24    16    23 1   
    25    16    24 1   
@<TRIPOS>SUBSTRUCTURE
     1 1X8         1 TEMP              0 ****  ****    0 ROOT
