@<TRIPOS>MOLECULE
1X8
   24    25     1     0     0
SMALL
bcc


@<TRIPOS>ATOM
      1 C1           1.4600     1.1980     0.0110 cc         1 1X8      -0.035200
      2 C2           0.0390     1.2480     0.0010 ca         1 1X8      -0.292100
      3 C3          -0.5450    -0.0190     0.0070 ca         1 1X8       0.063900
      4 C4          -1.9420    -0.1780     0.0040 ca         1 1X8      -0.331900
      5 C5          -2.6640     1.0040    -0.0140 ca         1 1X8       0.515200
      6 N6          -2.1490     2.2280    -0.0220 nb         1 1X8      -0.788000
      7 C7          -0.8260     2.3770    -0.0130 ca         1 1X8       0.766200
      8 N8          -0.3420     3.6230    -0.0260 nv         1 1X8      -0.960500
      9 C9          -2.5060    -1.5410     0.0150 c          1 1X8       0.704700
     10 O10         -1.7420    -2.5040    -0.0050 o          1 1X8      -0.629100
     11 N11         -3.8370    -1.6820     0.0420 nt         1 1X8      -0.665000
     12 S12          0.6490    -1.2570     0.0210 ss         1 1X8       0.080500
     13 C13          1.9310    -0.0740     0.0230 cd         1 1X8      -0.197600
     14 C14          3.3730    -0.4150     0.0370 c          1 1X8       0.715300
     15 O15          4.2150     0.4730     0.0570 o          1 1X8      -0.609100
     16 N16          3.6870    -1.7180     0.0300 nt         1 1X8      -0.671000
     17 H1           2.1110     2.0600     0.0090 ha         1 1X8       0.164000
     18 H2          -3.7490     0.9810    -0.0240 h4         1 1X8       0.007100
     19 H3          -0.9760     4.4030     0.0050 hn         1 1X8       0.448800
     20 H4           0.6410     3.8170     0.0310 hn         1 1X8       0.448800
     21 H5          -4.4770    -0.9120     0.1150 hn         1 1X8       0.316000
     22 H6          -4.2360    -2.6070     0.0700 hn         1 1X8       0.316000
     23 H7           3.0100    -2.4600    -0.0090 hn         1 1X8       0.317500
     24 H8           4.6560    -1.9940     0.0290 hn         1 1X8       0.317500
@<TRIPOS>BOND
     1     1     2 1   
     2     1    13 2   
     3     1    17 1   
     4     2     3 ar  
     5     2     7 ar  
     6     3     4 ar  
     7     3    12 1   
     8     4     5 ar  
     9     4     9 1   
    10     5     6 ar  
    11     5    18 1   
    12     6     7 ar  
    13     7     8 1   
    14     8    19 1   
    15     8    20 1   
    16     9    10 2   
    17     9    11 1   
    18    11    21 1   
    19    11    22 1   
    20    12    13 1   
    21    13    14 1   
    22    14    15 2   
    23    14    16 1   
    24    16    23 1   
    25    16    24 1   
@<TRIPOS>SUBSTRUCTURE
     1 1X8         1 TEMP              0 ****  ****    0 ROOT
