@<TRIPOS>MOLECULE
1X9
   33    33     1     0     0
SMALL
No Charge or Current Charge


@<TRIPOS>ATOM
      1 O1          -2.4390     0.9220     2.1310 o          1 1X9      -0.598100
      2 C1          -3.3360     1.0290     1.3110 c          1 1X9       0.612100
      3 N           -4.6130     0.7410     1.6440 nt         1 1X9      -0.582000
      4 C2          -3.1120     1.4920    -0.1200 cx         1 1X9       0.009300
      5 O2          -3.9460     0.8940    -1.1520 op         1 1X9      -0.401000
      6 C3          -2.5350     0.5370    -1.1380 cx         1 1X9      -0.021700
      7 C10         -2.1600    -0.8790    -0.7110 c          1 1X9       0.583100
      8 O3          -2.9910    -1.6890    -0.3130 o          1 1X9      -0.496100
      9 C11         -0.6740    -1.2480    -0.8060 c3         1 1X9      -0.174400
     10 C12          0.0510    -1.0290     0.5400 c3         1 1X9      -0.028200
     11 C4           1.5170    -1.3960     0.4530 c2         1 1X9      -0.232200
     12 C5           2.5390    -0.5320     0.5580 c2         1 1X9      -0.201200
     13 C6           4.0050    -0.8960     0.4780 c3         1 1X9      -0.008000
     14 C7           4.7200    -0.0280    -0.5340 c2         1 1X9      -0.224200
     15 C8           5.8470     0.6650    -0.3060 c2         1 1X9      -0.211200
     16 C9           6.5600     1.5300    -1.3230 c3         1 1X9      -0.056900
     17 H1          -5.3370     0.8140     0.9450 hn         1 1X9       0.329500
     18 H2          -4.8250     0.4240     2.5780 hn         1 1X9       0.329500
     19 H3          -2.9190     2.5580    -0.2370 h1         1 1X9       0.117700
     20 H4          -1.9520     0.9470    -1.9610 h1         1 1X9       0.107700
     21 H5          -0.5810    -2.3010    -1.0940 hc         1 1X9       0.071200
     22 H6          -0.1850    -0.6020    -1.5440 hc         1 1X9       0.071200
     23 H7          -0.0600     0.0200     0.8420 hc         1 1X9       0.058200
     24 H8          -0.4360    -1.6290     1.3200 hc         1 1X9       0.058200
     25 H9           1.7070    -2.4600     0.2970 ha         1 1X9       0.165000
     26 H10          2.3520     0.5320     0.7190 ha         1 1X9       0.172000
     27 H11          4.4660    -0.7870     1.4680 hc         1 1X9       0.049700
     28 H12          4.1210    -1.9520     0.2030 hc         1 1X9       0.049700
     29 H13          4.2420    -0.0000    -1.5160 ha         1 1X9       0.168000
     30 H14          6.3270     0.6370     0.6750 ha         1 1X9       0.165000
     31 H15          6.6210     2.5690    -0.9790 hc         1 1X9       0.039367
     32 H16          7.5840     1.1730    -1.4910 hc         1 1X9       0.039367
     33 H17          6.0440     1.5290    -2.2900 hc         1 1X9       0.039367
@<TRIPOS>BOND
     1     1     2 2   
     2     2     3 1   
     3     2     4 1   
     4     3    17 1   
     5     3    18 1   
     6     4     5 1   
     7     4     6 1   
     8     4    19 1   
     9     5     6 1   
    10     6     7 1   
    11     6    20 1   
    12     7     8 2   
    13     7     9 1   
    14     9    10 1   
    15     9    21 1   
    16     9    22 1   
    17    10    11 1   
    18    10    23 1   
    19    10    24 1   
    20    11    12 2   
    21    11    25 1   
    22    12    13 1   
    23    12    26 1   
    24    13    14 1   
    25    13    27 1   
    26    13    28 1   
    27    14    15 2   
    28    14    29 1   
    29    15    16 1   
    30    15    30 1   
    31    16    31 1   
    32    16    32 1   
    33    16    33 1   
@<TRIPOS>SUBSTRUCTURE
     1 1X9         1 TEMP              0 ****  ****    0 ROOT
