@<TRIPOS>MOLECULE
1X9
   33    33     1     0     0
SMALL
bcc


@<TRIPOS>ATOM
      1 O1          -2.3840     2.9440     0.2280 o          1 1X9      -0.598100
      2 C1          -3.1800     2.0230     0.3240 c          1 1X9       0.679100
      3 N           -3.8190     1.6710     1.4380 nt         1 1X9      -0.649000
      4 C2          -3.5060     1.2230    -0.9110 cx         1 1X9      -0.013900
      5 O2          -4.3230     0.0840    -0.8020 op         1 1X9      -0.354600
      6 C3          -2.9710    -0.1330    -1.1260 cx         1 1X9      -0.044900
      7 C10         -2.1130    -0.7980    -0.0880 c          1 1X9       0.583100
      8 O3          -2.5650    -1.1470     0.9740 o          1 1X9      -0.496100
      9 C11         -0.6790    -0.9730    -0.4930 c3         1 1X9      -0.174400
     10 C12          0.2150    -1.5610     0.5920 c3         1 1X9      -0.028200
     11 C4           1.6130    -1.7570     0.0950 c2         1 1X9      -0.182200
     12 C5           2.6890    -1.1590     0.5950 c2         1 1X9      -0.151200
     13 C6           4.0880    -1.3380     0.0850 c3         1 1X9      -0.008000
     14 C7           4.6370    -0.0510    -0.4590 c2         1 1X9      -0.174200
     15 C8           5.6670     0.6130     0.0560 c2         1 1X9      -0.161200
     16 C9           6.2010     1.9140    -0.4760 c3         1 1X9      -0.056900
     17 H1          -4.4280     0.8720     1.4680 hn         1 1X9       0.329500
     18 H2          -3.6260     2.1460     2.3060 hn         1 1X9       0.329500
     19 H3          -3.6560     1.8400    -1.7940 h1         1 1X9       0.117700
     20 H4          -2.7660    -0.4230    -2.1550 h1         1 1X9       0.107700
     21 H5          -0.6650    -1.6010    -1.3920 hc         1 1X9       0.071200
     22 H6          -0.2990     0.0000    -0.8250 hc         1 1X9       0.071200
     23 H7           0.2190    -0.9080     1.4680 hc         1 1X9       0.058200
     24 H8          -0.1970    -2.5220     0.9130 hc         1 1X9       0.058200
     25 H9           1.7320    -2.4410    -0.7440 ha         1 1X9       0.115000
     26 H10          2.5720    -0.4660     1.4260 ha         1 1X9       0.122000
     27 H11          4.7340    -1.6960     0.8920 hc         1 1X9       0.049700
     28 H12          4.0950    -2.1070    -0.6940 hc         1 1X9       0.049700
     29 H13          4.1190     0.3530    -1.3270 ha         1 1X9       0.118000
     30 H14          6.1690     0.1960     0.9250 ha         1 1X9       0.115000
     31 H15          7.0530     2.2610     0.1070 hc         1 1X9       0.039367
     32 H16          6.5310     1.8240    -1.5120 hc         1 1X9       0.039367
     33 H17          5.4460     2.7020    -0.4480 hc         1 1X9       0.039367
@<TRIPOS>BOND
     1     1     2 2   
     2     2     3 1   
     3     2     4 1   
     4     3    17 1   
     5     3    18 1   
     6     4     5 1   
     7     4     6 1   
     8     4    19 1   
     9     5     6 1   
    10     6     7 1   
    11     6    20 1   
    12     7     8 2   
    13     7     9 1   
    14     9    10 1   
    15     9    21 1   
    16     9    22 1   
    17    10    11 1   
    18    10    23 1   
    19    10    24 1   
    20    11    12 2   
    21    11    25 1   
    22    12    13 1   
    23    12    26 1   
    24    13    14 1   
    25    13    27 1   
    26    13    28 1   
    27    14    15 2   
    28    14    29 1   
    29    15    16 1   
    30    15    30 1   
    31    16    31 1   
    32    16    32 1   
    33    16    33 1   
@<TRIPOS>SUBSTRUCTURE
     1 1X9         1 TEMP              0 ****  ****    0 ROOT
