@<TRIPOS>MOLECULE
1XA
   23    24     1     0     0
SMALL
bcc


@<TRIPOS>ATOM
      1 CAI         -1.5250    -0.8900     0.7830 ca         1 1XA      -0.134000
      2 CAJ         -2.9120    -0.8790     0.7450 ca         1 1XA      -0.123000
      3 CAK         -3.5840     0.0380    -0.0520 ca         1 1XA      -0.134000
      4 CAL         -2.8560     0.9390    -0.8180 ca         1 1XA      -0.123000
      5 CAM         -1.4690     0.9170    -0.7920 ca         1 1XA      -0.134000
      6 CAH         -0.7790     0.0060     0.0130 ca         1 1XA       0.027000
      7 CAD          0.6830    -0.0080     0.0420 cc         1 1XA      -0.407600
      8 CAE          1.5710    -1.1130    -0.0450 cc         1 1XA       0.394600
      9 CAG          1.2230    -2.5540    -0.1750 c3         1 1XA      -0.136400
     10 NAA          2.8190    -0.7420    -0.0280 nd         1 1XA      -0.384300
     11 OAB          2.7980     0.6380     0.0910 os         1 1XA      -0.151100
     12 CAC          1.5400     1.0630     0.1270 cd         1 1XA       0.560600
     13 NAF          1.3400     2.3820     0.3150 nv         1 1XA      -0.933500
     14 H1          -1.0170    -1.5950     1.4300 ha         1 1XA       0.126000
     15 H2          -3.4690    -1.5850     1.3480 ha         1 1XA       0.129500
     16 H3          -4.6660     0.0500    -0.0770 ha         1 1XA       0.131000
     17 H4          -3.3690     1.6550    -1.4480 ha         1 1XA       0.129500
     18 H5          -0.9190     1.6020    -1.4270 ha         1 1XA       0.126000
     19 H6           0.4370    -2.6960    -0.9160 hc         1 1XA       0.057033
     20 H7           2.0920    -3.1360    -0.4740 hc         1 1XA       0.057033
     21 H8           0.8580    -2.9580     0.7700 hc         1 1XA       0.057033
     22 H9           0.4060     2.7310     0.1750 hn         1 1XA       0.432800
     23 H10          2.0660     3.0190     0.0240 hn         1 1XA       0.432800
@<TRIPOS>BOND
     1     1     2 ar  
     2     1     6 ar  
     3     1    14 1   
     4     2     3 ar  
     5     2    15 1   
     6     3     4 ar  
     7     3    16 1   
     8     4     5 ar  
     9     4    17 1   
    10     5     6 ar  
    11     5    18 1   
    12     6     7 1   
    13     7     8 1   
    14     7    12 2   
    15     8     9 1   
    16     8    10 2   
    17     9    19 1   
    18     9    20 1   
    19     9    21 1   
    20    10    11 1   
    21    11    12 1   
    22    12    13 1   
    23    13    22 1   
    24    13    23 1   
@<TRIPOS>SUBSTRUCTURE
     1 1XA         1 TEMP              0 ****  ****    0 ROOT
