@<TRIPOS>MOLECULE
1XA
   23    24     1     0     0
SMALL
No Charge or Current Charge


@<TRIPOS>ATOM
      1 CAI         -1.4950    -0.9720     0.6030 ca         1 1XA      -0.116000
      2 CAJ         -2.8990    -0.9200     0.6450 ca         1 1XA      -0.105000
      3 CAK         -3.5860     0.1020    -0.0260 ca         1 1XA      -0.116000
      4 CAL         -2.8660     1.0710    -0.7400 ca         1 1XA      -0.105000
      5 CAM         -1.4610     1.0190    -0.7790 ca         1 1XA      -0.116000
      6 CAH         -0.7520    -0.0010    -0.1040 ca         1 1XA       0.027000
      7 CAD          0.7210    -0.0600    -0.1510 cc         1 1XA      -0.277000
      8 CAE          1.6370    -1.1340    -0.0110 cc         1 1XA       0.329300
      9 CAG          1.2490    -2.5870     0.0080 c3         1 1XA      -0.136400
     10 NAA          2.9050    -0.7560     0.0440 nd         1 1XA      -0.384300
     11 OAB          2.8360     0.6770    -0.0220 os         1 1XA      -0.106700
     12 CAC          1.5200     1.0390    -0.1070 cd         1 1XA       0.450900
     13 NAF          1.2180     2.3630    -0.0200 nv         1 1XA      -1.043900
     14 H1          -0.9920    -1.7570     1.1580 ha         1 1XA       0.108000
     15 H2          -3.4540    -1.6710     1.2040 ha         1 1XA       0.111500
     16 H3          -4.6730     0.1410     0.0040 ha         1 1XA       0.113000
     17 H4          -3.3950     1.8580    -1.2730 ha         1 1XA       0.111500
     18 H5          -0.9330     1.7580    -1.3740 ha         1 1XA       0.108000
     19 H6           0.3640    -2.7680    -0.6120 hc         1 1XA       0.057033
     20 H7           2.0580    -3.2130    -0.3860 hc         1 1XA       0.057033
     21 H8           1.0380    -2.9200     1.0300 hc         1 1XA       0.057033
     22 H9           0.2730     2.6120     0.2580 hn         1 1XA       0.488000
     23 H10          1.9540     3.0050     0.2630 hn         1 1XA       0.488000
@<TRIPOS>BOND
     1     1     2 ar  
     2     1     6 ar  
     3     1    14 1   
     4     2     3 ar  
     5     2    15 1   
     6     3     4 ar  
     7     3    16 1   
     8     4     5 ar  
     9     4    17 1   
    10     5     6 ar  
    11     5    18 1   
    12     6     7 1   
    13     7     8 1   
    14     7    12 2   
    15     8     9 1   
    16     8    10 2   
    17     9    19 1   
    18     9    20 1   
    19     9    21 1   
    20    10    11 1   
    21    11    12 1   
    22    12    13 1   
    23    13    22 1   
    24    13    23 1   
@<TRIPOS>SUBSTRUCTURE
     1 1XA         1 TEMP              0 ****  ****    0 ROOT
