@<TRIPOS>MOLECULE
1XB
   45    48     1     0     0
SMALL
abcg2


@<TRIPOS>ATOM
      1 C23          9.5080   -17.6580    -3.4600 ca         1 1XB      -0.069500
      2 C28          8.3830   -16.1330    -4.9400 ca         1 1XB      -0.069500
      3 C24         10.2670   -18.1390    -4.5180 ca         1 1XB      -0.112500
      4 C27          9.1450   -16.5910    -6.0050 ca         1 1XB      -0.112500
      5 C8           6.3960   -17.0660     0.0280 cc         1 1XB      -0.172000
      6 C22          8.5560   -16.6570    -3.6580 ca         1 1XB      -0.133900
      7 C5           8.3480   -16.0790    -1.2030 cd         1 1XB      -0.208900
      8 C3           9.6950   -15.6270    -0.9660 cd         1 1XB      -0.065300
      9 C25         10.0800   -17.5940    -5.7810 ca         1 1XB       0.133000
     10 C6           7.7560   -16.6100    -0.0620 cc         1 1XB      -0.094000
     11 C9           5.4050   -16.5430    -0.7510 cd         1 1XB       0.211300
     12 C12          5.7320   -18.0610     0.8150 cc         1 1XB       0.311300
     13 C2          10.1000   -15.8430     0.3240 cc         1 1XB      -0.205300
     14 C21          7.7080   -16.1760    -2.5300 cf         1 1XB       0.566500
     15 C14          5.5750   -15.4610    -1.7580 c3         1 1XB       0.094200
     16 C13          6.3150   -18.9560     1.8510 c3         1 1XB      -0.138400
     17 C1          11.4160   -15.4970     0.9430 c3         1 1XB      -0.018800
     18 C16          4.2740   -14.9860    -2.3890 c3         1 1XB      -0.140400
     19 N11          4.4610   -18.1270     0.5070 nd         1 1XB      -0.354300
     20 N20          6.4710   -15.9700    -2.8020 n2         1 1XB      -0.590900
     21 N18          3.8980   -13.8410    -4.4960 nt         1 1XB      -0.603000
     22 O19          5.2630   -12.8770    -2.9760 o          1 1XB      -0.618100
     23 O10          4.2440   -17.1580    -0.5010 os         1 1XB      -0.078700
     24 S7           8.8560   -16.5960     1.2680 ss         1 1XB       0.216000
     25 CL2         11.0440   -18.1810    -7.1180 cl         1 1XB      -0.210000
     26 H1           9.6550   -18.0740    -2.4720 ha         1 1XB       0.130500
     27 H2           7.6530   -15.3510    -5.1010 ha         1 1XB       0.130500
     28 H3          10.9950   -18.9220    -4.3620 ha         1 1XB       0.131500
     29 H4           9.0190   -16.1730    -6.9940 ha         1 1XB       0.131500
     30 H5           6.0540   -14.6190    -1.2430 h1         1 1XB       0.100700
     31 H6          11.1880   -14.1840    -1.4910 hc         1 1XB       0.048367
     32 H7          11.2350   -15.6420    -2.4780 hc         1 1XB       0.048367
     33 H8           9.9720   -14.4470    -2.7440 hc         1 1XB       0.048367
     34 H9           5.5750   -19.6790     2.1910 hc         1 1XB       0.062367
     35 H10          7.1780   -19.4880     1.4450 hc         1 1XB       0.062367
     36 H11          6.6590   -18.3740     2.7080 hc         1 1XB       0.062367
     37 H12         11.4610   -15.8070     1.9860 hc         1 1XB       0.048700
     38 H13         12.2370   -15.9800     0.4100 hc         1 1XB       0.048700
     39 H14         11.5910   -14.4180     0.9060 hc         1 1XB       0.048700
     40 H15          3.5910   -14.6430    -1.6070 hc         1 1XB       0.074700
     41 H16          3.7920   -15.8050    -2.9210 hc         1 1XB       0.074700
     42 H17          4.0060   -13.0730    -5.1410 hn         1 1XB       0.316500
     43 H18          3.3210   -14.6190    -4.7680 hn         1 1XB       0.316500
     44 C4          10.5670   -14.9380    -1.9760 c3         1 1XB      -0.031800
     45 C17          4.5320   -13.8080    -3.3120 c          1 1XB       0.609100
@<TRIPOS>BOND
     1     1     3 ar  
     2     1     6 ar  
     3     1    26 1   
     4     2     4 ar  
     5     2     6 ar  
     6     2    27 1   
     7     3     9 ar  
     8     3    28 1   
     9     4     9 ar  
    10     4    29 1   
    11     5    10 1   
    12     5    11 2   
    13     5    12 1   
    14     6    14 1   
    15     7     8 1   
    16     7    10 2   
    17     7    14 1   
    18     8    13 2   
    19     8    44 1   
    20     9    25 1   
    21    10    24 1   
    22    11    15 1   
    23    11    23 1   
    24    12    16 1   
    25    12    19 2   
    26    13    17 1   
    27    13    24 1   
    28    14    20 2   
    29    15    18 1   
    30    15    20 1   
    31    15    30 1   
    32    16    34 1   
    33    16    35 1   
    34    16    36 1   
    35    17    37 1   
    36    17    38 1   
    37    17    39 1   
    38    18    40 1   
    39    18    41 1   
    40    18    45 1   
    41    19    23 1   
    42    21    42 1   
    43    21    43 1   
    44    21    45 1   
    45    22    45 2   
    46    31    44 1   
    47    32    44 1   
    48    33    44 1   
@<TRIPOS>SUBSTRUCTURE
     1 1XB         1 TEMP              0 ****  ****    0 ROOT
