@<TRIPOS>MOLECULE
1XB
   45    48     1     0     0
SMALL
No Charge or Current Charge


@<TRIPOS>ATOM
      1 C23          9.4330   -17.6460    -3.4580 ca         1 1XB      -0.069500
      2 C28          8.2770   -16.1750    -5.0120 ca         1 1XB      -0.069500
      3 C24         10.1020   -18.2530    -4.5340 ca         1 1XB      -0.112500
      4 C27          8.9490   -16.7850    -6.0860 ca         1 1XB      -0.112500
      5 C8           6.4610   -17.1400    -0.0890 cc         1 1XB      -0.172000
      6 C22          8.5240   -16.5840    -3.6790 ca         1 1XB      -0.133900
      7 C5           8.4010   -16.0590    -1.1910 cd         1 1XB      -0.208900
      8 C3           9.7140   -15.5620    -0.8840 cd         1 1XB      -0.065300
      9 C25          9.8630   -17.8200    -5.8460 ca         1 1XB       0.133000
     10 C6           7.8380   -16.7140    -0.1120 cc         1 1XB      -0.094000
     11 C9           5.4930   -16.6230    -0.8870 cd         1 1XB       0.211300
     12 C12          5.7800   -18.0280     0.7790 cc         1 1XB       0.311300
     13 C2          10.1450   -15.9060     0.3770 cc         1 1XB      -0.205300
     14 C21          7.7920   -15.9680    -2.5380 cf         1 1XB       0.566500
     15 C14          5.5540   -15.3900    -1.7740 c3         1 1XB       0.094200
     16 C13          6.4310   -18.8390     1.8640 c3         1 1XB      -0.138400
     17 C1          11.4610   -15.5700     1.0290 c3         1 1XB      -0.018800
     18 C16          4.2130   -15.0640    -2.4770 c3         1 1XB      -0.140400
     19 N11          4.4820   -18.1030     0.5310 nd         1 1XB      -0.354300
     20 N20          6.6040   -15.5020    -2.7950 n2         1 1XB      -0.590900
     21 N18          4.3770   -13.7730    -4.5540 nt         1 1XB      -0.603000
     22 O19          4.1800   -12.6480    -2.6390 o          1 1XB      -0.618100
     23 O10          4.2830   -17.1820    -0.5580 os         1 1XB      -0.078700
     24 S7           8.9870   -16.9390     1.1970 ss         1 1XB       0.216000
     25 Cl2         10.7010   -18.5830    -7.1910 cl         1 1XB      -0.210000
     26 H1           9.6250   -18.0100    -2.4500 ha         1 1XB       0.130500
     27 H2           7.5720   -15.3720    -5.2220 ha         1 1XB       0.130500
     28 H3          10.8040   -19.0640    -4.3510 ha         1 1XB       0.131500
     29 H4           8.7590   -16.4560    -7.1040 ha         1 1XB       0.131500
     30 H5           5.7860   -14.5470    -1.1070 h1         1 1XB       0.100700
     31 H6          11.1860   -14.0370    -1.3430 hc         1 1XB       0.048367
     32 H7          11.1890   -15.4130    -2.4570 hc         1 1XB       0.048367
     33 H8           9.9130   -14.1860    -2.5510 hc         1 1XB       0.048367
     34 H9           5.7380   -19.5870     2.2660 hc         1 1XB       0.062367
     35 H10          7.3070   -19.3740     1.4800 hc         1 1XB       0.062367
     36 H11          6.7460   -18.1980     2.6950 hc         1 1XB       0.062367
     37 H12         11.5700   -16.0760     1.9960 hc         1 1XB       0.048700
     38 H13         12.3020   -15.8760     0.3950 hc         1 1XB       0.048700
     39 H14         11.5450   -14.4910     1.2060 hc         1 1XB       0.048700
     40 H15          3.4250   -14.9980    -1.7170 hc         1 1XB       0.074700
     41 H16          3.9870   -15.8720    -3.1830 hc         1 1XB       0.074700
     42 H17          4.4110   -12.9120    -5.0790 hn         1 1XB       0.316500
     43 H18          4.4620   -14.6640    -5.0190 hn         1 1XB       0.316500
     44 C4          10.5430   -14.7580    -1.8600 c3         1 1XB      -0.031800
     45 C17          4.2660   -13.7230    -3.2090 c          1 1XB       0.609100
@<TRIPOS>BOND
     1     1     3 ar  
     2     1     6 ar  
     3     1    26 1   
     4     2     4 ar  
     5     2     6 ar  
     6     2    27 1   
     7     3     9 ar  
     8     3    28 1   
     9     4     9 ar  
    10     4    29 1   
    11     5    10 1   
    12     5    11 2   
    13     5    12 1   
    14     6    14 1   
    15     7     8 1   
    16     7    10 2   
    17     7    14 1   
    18     8    13 2   
    19     8    44 1   
    20     9    25 1   
    21    10    24 1   
    22    11    15 1   
    23    11    23 1   
    24    12    16 1   
    25    12    19 2   
    26    13    17 1   
    27    13    24 1   
    28    14    20 2   
    29    15    18 1   
    30    15    20 1   
    31    15    30 1   
    32    16    34 1   
    33    16    35 1   
    34    16    36 1   
    35    17    37 1   
    36    17    38 1   
    37    17    39 1   
    38    18    40 1   
    39    18    41 1   
    40    18    45 1   
    41    19    23 1   
    42    21    42 1   
    43    21    43 1   
    44    21    45 1   
    45    22    45 2   
    46    31    44 1   
    47    32    44 1   
    48    33    44 1   
@<TRIPOS>SUBSTRUCTURE
     1 1XB         1 TEMP              0 ****  ****    0 ROOT
