@<TRIPOS>MOLECULE
1XD
   45    48     1     0     0
SMALL
abcg2


@<TRIPOS>ATOM
      1 C4          -1.0010     0.8390    -0.3080 ca         1 1XD      -0.013000
      2 C5           0.1350     0.0730    -0.1040 ca         1 1XD      -0.120500
      3 C6           0.2580    -0.7330     1.0240 ca         1 1XD      -0.049300
      4 C7           1.4730    -1.5990     1.2300 c3         1 1XD       0.133300
      5 C13          5.8390     1.6030    -0.3790 cc         1 1XD      -0.109000
      6 C15          8.2670     1.5200    -0.8830 cc         1 1XD      -0.275100
      7 C24         -5.6040     0.0970     0.7610 ca         1 1XD      -0.081500
      8 C26         -6.5430    -1.2720    -1.0070 ca         1 1XD      -0.155000
      9 C28         -4.6600     0.1820    -1.4790 ca         1 1XD      -0.081500
     10 C1          -0.7750    -0.7550     1.9570 ca         1 1XD      -0.120500
     11 C2          -1.9150     0.0090     1.7720 ca         1 1XD      -0.013000
     12 C3          -2.0190     0.7960     0.6330 ca         1 1XD      -0.267500
     13 N8           2.6920    -0.9180     0.8720 ns         1 1XD      -0.506900
     14 C9           3.6410    -1.4510     0.0770 c          1 1XD       0.621700
     15 O10          3.5610    -2.5660    -0.4140 o          1 1XD      -0.588100
     16 C11          4.8270    -0.5780    -0.1730 cd         1 1XD      -0.162600
     17 C12          4.7440     0.8440    -0.1410 cd         1 1XD      -0.132000
     18 N14          7.0320     0.9950    -0.6360 na         1 1XD       0.135100
     19 C16          9.0850     0.4340    -1.0650 cd         1 1XD      -0.032400
     20 N17          8.4070    -0.7300    -0.9410 nd         1 1XD      -0.270600
     21 C18          7.1620    -0.3850    -0.6840 cc         1 1XD      -0.100000
     22 C19          6.0220    -1.1780    -0.4600 cc         1 1XD       0.003000
     23 S20         -3.4760     1.7720     0.3980 sy         1 1XD       1.024000
     24 O21         -3.9110     2.2710     1.6960 o          1 1XD      -0.519000
     25 O22         -3.2360     2.7000    -0.7000 o          1 1XD      -0.519000
     26 C23         -4.6820     0.5820    -0.1510 ca         1 1XD      -0.207500
     27 C25         -6.5210    -0.8300     0.3010 ca         1 1XD       0.187500
     28 C27         -5.5990    -0.7500    -1.8730 ca         1 1XD       0.187500
     29 F29         -5.6040    -1.1650    -3.1400 f          1 1XD      -0.164500
     30 F30         -7.4270    -1.3110     1.1530 f          1 1XD      -0.164500
     31 H1          -1.0770     1.4620    -1.1880 ha         1 1XD       0.137500
     32 H2           0.9320     0.1120    -0.8350 ha         1 1XD       0.124500
     33 H3           1.5160    -1.9350     2.2690 h1         1 1XD       0.071700
     34 H4           1.3910    -2.4940     0.6140 h1         1 1XD       0.071700
     35 H6           8.4510     2.5800    -0.9060 h4         1 1XD       0.234000
     36 H7          -5.6220     0.4240     1.7920 ha         1 1XD       0.158500
     37 H8          -7.2720    -1.9970    -1.3430 ha         1 1XD       0.155000
     38 H9          -3.9460     0.5740    -2.1910 ha         1 1XD       0.158500
     39 H10         -0.6890    -1.3660     2.8460 ha         1 1XD       0.124500
     40 H11         -2.7000    -0.0140     2.5160 ha         1 1XD       0.137500
     41 H12          2.9020    -0.0740     1.3810 hn         1 1XD       0.318500
     42 H13          3.8080     1.3530     0.0380 ha         1 1XD       0.130000
     43 H14         10.1430     0.4540    -1.2790 h4         1 1XD       0.230000
     44 H15          6.1230    -2.2530    -0.5030 ha         1 1XD       0.164000
     45 H5           5.8280     2.6820    -0.3830 h4         1 1XD       0.147000
@<TRIPOS>BOND
     1     1     2 ar  
     2     1    12 ar  
     3     1    31 1   
     4     2     3 ar  
     5     2    32 1   
     6     3     4 1   
     7     3    10 ar  
     8     4    13 1   
     9     4    33 1   
    10     4    34 1   
    11     5    17 2   
    12     5    18 1   
    13     5    45 1   
    14     6    18 1   
    15     6    19 2   
    16     6    35 1   
    17     7    26 ar  
    18     7    27 ar  
    19     7    36 1   
    20     8    27 ar  
    21     8    28 ar  
    22     8    37 1   
    23     9    26 ar  
    24     9    28 ar  
    25     9    38 1   
    26    10    11 ar  
    27    10    39 1   
    28    11    12 ar  
    29    11    40 1   
    30    12    23 1   
    31    13    14 1   
    32    13    41 1   
    33    14    15 2   
    34    14    16 1   
    35    16    17 1   
    36    16    22 2   
    37    17    42 1   
    38    18    21 1   
    39    19    20 1   
    40    19    43 1   
    41    20    21 2   
    42    21    22 1   
    43    22    44 1   
    44    23    24 2   
    45    23    25 2   
    46    23    26 1   
    47    27    30 1   
    48    28    29 1   
@<TRIPOS>SUBSTRUCTURE
     1 1XD         1 TEMP              0 ****  ****    0 ROOT
