@<TRIPOS>MOLECULE
1XD
   45    48     1     0     0
SMALL
No Charge or Current Charge


@<TRIPOS>ATOM
      1 C4          -1.4440     0.3570    -1.2160 ca         1 1XD      -0.013000
      2 C5          -0.3360    -0.5080    -1.2170 ca         1 1XD      -0.120500
      3 C6           0.2250    -0.9500    -0.0040 ca         1 1XD      -0.049300
      4 C7           1.4280    -1.8800    -0.0080 c3         1 1XD       0.133300
      5 C13          5.9680     1.6380     0.0080 cc         1 1XD      -0.109000
      6 C15          8.3890     1.7460     0.0110 cc         1 1XD      -0.275100
      7 C24         -5.3650     0.2560     1.2290 ca         1 1XD      -0.081500
      8 C26         -6.9740    -1.1090     0.0090 ca         1 1XD      -0.155000
      9 C28         -5.3690     0.2630    -1.2100 ca         1 1XD      -0.081500
     10 C1          -0.3330    -0.5160     1.2140 ca         1 1XD      -0.120500
     11 C2          -1.4410     0.3490     1.2220 ca         1 1XD      -0.013000
     12 C3          -2.0000     0.7920     0.0050 ca         1 1XD      -0.267500
     13 N8           2.6800    -1.1260    -0.0050 ns         1 1XD      -0.506900
     14 C9           3.9300    -1.6970    -0.0060 c          1 1XD       0.621700
     15 O10          4.0790    -2.9110    -0.0100 o          1 1XD      -0.588100
     16 C11          5.0560    -0.7120    -0.0010 cd         1 1XD      -0.162600
     17 C12          4.8990     0.7400     0.0040 cd         1 1XD      -0.132000
     18 N14          7.2250     1.0390     0.0070 na         1 1XD       0.135100
     19 C16          9.3400     0.7410     0.0080 cd         1 1XD      -0.032400
     20 N17          8.7440    -0.5210     0.0030 nd         1 1XD      -0.270600
     21 C18          7.4420    -0.2990     0.0030 cc         1 1XD      -0.100000
     22 C19          6.3490    -1.2070    -0.0020 cc         1 1XD       0.003000
     23 S20         -3.4350     1.8870     0.0110 sy         1 1XD       1.024000
     24 O21         -3.4490     2.6050     1.2940 o          1 1XD      -0.519000
     25 O22         -3.4530     2.6120    -1.2680 o          1 1XD      -0.519000
     26 C23         -4.8250     0.7270     0.0100 ca         1 1XD      -0.207500
     27 C25         -6.4340    -0.6550     1.2210 ca         1 1XD       0.187500
     28 C27         -6.4380    -0.6480    -1.2030 ca         1 1XD       0.187500
     29 F29         -6.9540    -1.0870    -2.3720 f          1 1XD      -0.164500
     30 F30         -6.9460    -1.1000     2.3890 f          1 1XD      -0.164500
     31 H1          -1.8660     0.6830    -2.1660 ha         1 1XD       0.137500
     32 H2           0.0870    -0.8340    -2.1640 ha         1 1XD       0.124500
     33 H3           1.3980    -2.5310     0.8760 h1         1 1XD       0.071700
     34 H4           1.3980    -2.5220    -0.8990 h1         1 1XD       0.071700
     35 H6           8.4550     2.8280     0.0150 h4         1 1XD       0.234000
     36 H7          -4.9620     0.5900     2.1830 ha         1 1XD       0.158500
     37 H8          -7.8000    -1.8140     0.0080 ha         1 1XD       0.155000
     38 H9          -4.9690     0.6020    -2.1640 ha         1 1XD       0.158500
     39 H10          0.0930    -0.8490     2.1580 ha         1 1XD       0.124500
     40 H11         -1.8600     0.6690     2.1750 ha         1 1XD       0.137500
     41 H12          2.6330    -0.1160    -0.0010 hn         1 1XD       0.318500
     42 H13          3.9050     1.1740     0.0040 ha         1 1XD       0.130000
     43 H14         10.4230     0.8530     0.0100 h4         1 1XD       0.230000
     44 H15          6.5580    -2.2730    -0.0050 ha         1 1XD       0.164000
     45 H5           5.9050     2.7190     0.0120 h4         1 1XD       0.147000
@<TRIPOS>BOND
     1     1     2 ar  
     2     1    12 ar  
     3     1    31 1   
     4     2     3 ar  
     5     2    32 1   
     6     3     4 1   
     7     3    10 ar  
     8     4    13 1   
     9     4    33 1   
    10     4    34 1   
    11     5    17 2   
    12     5    18 1   
    13     5    45 1   
    14     6    18 1   
    15     6    19 2   
    16     6    35 1   
    17     7    26 ar  
    18     7    27 ar  
    19     7    36 1   
    20     8    27 ar  
    21     8    28 ar  
    22     8    37 1   
    23     9    26 ar  
    24     9    28 ar  
    25     9    38 1   
    26    10    11 ar  
    27    10    39 1   
    28    11    12 ar  
    29    11    40 1   
    30    12    23 1   
    31    13    14 1   
    32    13    41 1   
    33    14    15 2   
    34    14    16 1   
    35    16    17 1   
    36    16    22 2   
    37    17    42 1   
    38    18    21 1   
    39    19    20 1   
    40    19    43 1   
    41    20    21 2   
    42    21    22 1   
    43    22    44 1   
    44    23    24 2   
    45    23    25 2   
    46    23    26 1   
    47    27    30 1   
    48    28    29 1   
@<TRIPOS>SUBSTRUCTURE
     1 1XD         1 TEMP              0 ****  ****    0 ROOT
