@<TRIPOS>MOLECULE
1XE
   82    84     1     0     0
SMALL
No Charge or Current Charge


@<TRIPOS>ATOM
      1 N1A          9.7280     1.6590     4.2990 nb         1 1XE      -0.344000
      2 C2A          8.7190     0.7560     4.3410 ca         1 1XE       0.121900
      3 N3A          7.8380     0.4800     3.3510 nb         1 1XE      -0.091000
      4 C4A          7.9880     1.1810     2.2070 ca         1 1XE       0.131500
      5 C5A          8.9840     2.1260     2.0610 ca         1 1XE      -0.102600
      6 C6A          9.8580     2.3400     3.1520 ca         1 1XE       0.404900
      7 N6A         10.8680     3.2480     3.1180 nv         1 1XE      -1.107900
      8 N7A          8.9690     2.7530     0.8110 nc         1 1XE      -0.660100
      9 C8A          7.9250     2.1480     0.2040 cd         1 1XE       0.435700
     10 N9A          7.3020     1.1850     1.0130 na         1 1XE      -0.120000
     11 C1B          6.2010     0.4020     0.6600 cc         1 1XE      -0.040400
     12 C2B          5.4340    -0.6590     1.3590 c          1 1XE       0.413000
     13 O2B          5.5870    -1.1600     2.4710 o          1 1XE      -0.777100
     14 C3B          4.4270    -1.0080     0.3510 cc         1 1XE      -0.008100
     15 O3B          3.4340    -1.9620     0.3970 os         1 1XE      -0.468500
     16 P3B          2.9810    -2.8580     1.6650 p5         1 1XE       1.404800
     17 O7A          2.4670    -2.0460     2.7980 o          1 1XE      -0.855000
     18 O8A          2.0680    -3.9700     1.2800 o          1 1XE      -0.855000
     19 O9A          4.3870    -3.4620     2.0530 oh         1 1XE      -0.909400
     20 C4B          4.5920    -0.2640    -0.7890 cd         1 1XE       0.015900
     21 O4B          5.6610     0.5770    -0.5930 os         1 1XE      -0.267700
     22 C5B          3.8510    -0.2860    -2.1100 c3         1 1XE       0.297800
     23 O5B          3.7600     1.0390    -2.6420 os         1 1XE      -0.565400
     24 P1A          2.8230     1.2630    -3.9290 p5         1 1XE       1.467800
     25 O1A          3.0140     0.1420    -4.8990 o          1 1XE      -0.868500
     26 O2A          3.1360     2.5950    -4.5270 o          1 1XE      -0.868500
     27 O3A          1.4530     1.2070    -3.1560 os         1 1XE      -0.678800
     28 P2A          0.2330     1.7900    -3.9620 p5         1 1XE       1.452800
     29 O4A          0.1280     1.2870    -5.3640 o          1 1XE      -0.859000
     30 O5A          0.1160     3.2780    -3.8830 o          1 1XE      -0.859000
     31 O6A         -0.9250     1.0990    -3.0780 os         1 1XE      -0.566400
     32 CBP         -1.2990     0.4370    -0.7360 c3         1 1XE      -0.075000
     33 CCP         -1.2260     1.6100    -1.7720 c3         1 1XE       0.239600
     34 CDP         -2.3730    -0.5960    -1.1920 c3         1 1XE      -0.074100
     35 CEP          0.0710    -0.3000    -0.6480 c3         1 1XE      -0.074100
     36 CAP         -1.6790     0.9870     0.6900 c3         1 1XE       0.105300
     37 OAP         -0.6820     1.9300     1.1590 oh         1 1XE      -0.658000
     38 C9P         -3.1130     1.6130     0.7650 c          1 1XE       0.569100
     39 O9P         -3.3380     2.7770     0.4590 o          1 1XE      -0.617100
     40 N8P         -4.0990     0.7920     1.2780 ns         1 1XE      -0.511900
     41 C7P         -5.5060     1.1680     1.4220 c3         1 1XE       0.123000
     42 C6P         -6.2470     1.1240     0.0740 c3         1 1XE      -0.193400
     43 C5P         -7.7200     1.4760     0.2580 c          1 1XE       0.615100
     44 O5P         -8.0970     2.6190     0.4730 o          1 1XE      -0.605100
     45 N4P         -8.6010     0.4240     0.1320 ns         1 1XE      -0.418100
     46 C3P        -10.0010     0.4810     0.2340 c2         1 1XE       0.002600
     47 C2P        -10.7830    -0.5980     0.1070 c2         1 1XE      -0.245400
     48 S1P        -12.5590    -0.4850     0.2770 ss         1 1XE      -0.327600
     49 C1         -12.9700    -1.9820     1.3140 c3         1 1XE       0.012600
     50 C2         -12.5910    -1.8290     2.8110 c3         1 1XE       0.390300
     51 O21        -11.2730    -1.3520     2.9320 oh         1 1XE      -0.679500
     52 O1         -13.3990    -0.8530     3.4340 oh         1 1XE      -0.679500
     53 H1           8.6030     0.1950     5.2660 h5         1 1XE       0.025100
     54 H2          10.8530     3.9160     2.3510 hn         1 1XE       0.474500
     55 H3          11.2640     3.5630     4.0000 hn         1 1XE       0.474500
     56 H4           7.5720     2.3530    -0.8000 h5         1 1XE       0.056800
     57 H5           4.7540    -2.5540     2.2440 ho         1 1XE       0.514000
     58 H8           4.3950    -0.9420    -2.8010 h1         1 1XE       0.018200
     59 H9           2.8520    -0.7130    -1.9510 h1         1 1XE       0.018200
     60 H12         -0.4670     2.3340    -1.4460 h1         1 1XE       0.009700
     61 H13         -2.1900     2.1340    -1.8060 h1         1 1XE       0.009700
     62 H14         -2.0770    -1.0900    -2.1260 hc         1 1XE       0.037700
     63 H15         -2.5110    -1.3780    -0.4360 hc         1 1XE       0.037700
     64 H16         -3.3430    -0.1160    -1.3690 hc         1 1XE       0.037700
     65 H17          0.8860     0.3960    -0.4150 hc         1 1XE       0.037700
     66 H18          0.0520    -1.0700     0.1330 hc         1 1XE       0.037700
     67 H19          0.3170    -0.7970    -1.5940 hc         1 1XE       0.037700
     68 H20         -1.6870     0.1280     1.3750 h1         1 1XE       0.043700
     69 H21         -1.0360     2.8300     0.9730 ho         1 1XE       0.466000
     70 H22         -3.8220    -0.1450     1.5480 hn         1 1XE       0.317500
     71 H23         -5.9810     0.4720     2.1270 h1         1 1XE       0.052200
     72 H24         -5.5670     2.1780     1.8520 h1         1 1XE       0.052200
     73 H25         -5.7950     1.8620    -0.5980 hc         1 1XE       0.093700
     74 H26         -6.1440     0.1190    -0.3510 hc         1 1XE       0.093700
     75 H27         -8.1780    -0.4770    -0.0570 hn         1 1XE       0.343500
     76 H28        -10.4020     1.4810     0.4230 h4         1 1XE       0.211000
     77 H29        -10.3760    -1.5970    -0.0690 h4         1 1XE       0.204000
     78 H30        -14.0500    -2.1670     1.2480 h1         1 1XE       0.082200
     79 H31        -12.4610    -2.8600     0.8980 h1         1 1XE       0.082200
     80 H32        -11.1620    -0.7910     2.1330 ho         1 1XE       0.455000
     81 H33        -13.2970    -1.0070     4.3970 ho         1 1XE       0.455000
     82 H34        -12.6970    -2.7870     3.3370 h2         1 1XE       0.051700
@<TRIPOS>BOND
     1     1     2 ar  
     2     1     6 ar  
     3     2     3 ar  
     4     2    53 1   
     5     3     4 ar  
     6     4     5 ar  
     7     4    10 1   
     8     5     6 ar  
     9     5     8 1   
    10     6     7 1   
    11     7    54 1   
    12     7    55 1   
    13     8     9 2   
    14     9    10 1   
    15     9    56 1   
    16    10    11 2   
    17    11    12 1   
    18    11    21 1   
    19    12    13 2   
    20    12    14 1   
    21    14    15 1   
    22    14    20 2   
    23    15    16 1   
    24    16    17 1   
    25    16    18 1   
    26    16    19 1   
    27    19    57 1   
    28    20    21 1   
    29    20    22 1   
    30    22    23 1   
    31    22    58 1   
    32    22    59 1   
    33    23    24 1   
    34    24    25 1   
    35    24    26 1   
    36    24    27 1   
    37    27    28 1   
    38    28    29 1   
    39    28    30 1   
    40    28    31 1   
    41    31    33 1   
    42    32    33 1   
    43    32    34 1   
    44    32    35 1   
    45    32    36 1   
    46    33    60 1   
    47    33    61 1   
    48    34    62 1   
    49    34    63 1   
    50    34    64 1   
    51    35    65 1   
    52    35    66 1   
    53    35    67 1   
    54    36    37 1   
    55    36    38 1   
    56    36    68 1   
    57    37    69 1   
    58    38    39 2   
    59    38    40 1   
    60    40    41 1   
    61    40    70 1   
    62    41    42 1   
    63    41    71 1   
    64    41    72 1   
    65    42    43 1   
    66    42    73 1   
    67    42    74 1   
    68    43    44 2   
    69    43    45 1   
    70    45    46 1   
    71    45    75 1   
    72    46    47 2   
    73    46    76 1   
    74    47    48 1   
    75    47    77 1   
    76    48    49 1   
    77    49    50 1   
    78    49    78 1   
    79    49    79 1   
    80    50    51 1   
    81    50    52 1   
    82    50    82 1   
    83    51    80 1   
    84    52    81 1   
@<TRIPOS>SUBSTRUCTURE
     1 1XE         1 TEMP              0 ****  ****    0 ROOT
