@<TRIPOS>MOLECULE
1XE
   82    84     1     0     0
SMALL
abcg2


@<TRIPOS>ATOM
      1 N1A          8.0550     2.3940     2.8670 nb         1 1XE      -0.344000
      2 C2A          6.8710     1.7860     2.8480 ca         1 1XE       0.121900
      3 N3A          6.5040     0.7210     2.1570 nb         1 1XE      -0.091000
      4 C4A          7.5000     0.2520     1.4110 ca         1 1XE       0.131500
      5 C5A          8.7800     0.7730     1.3270 ca         1 1XE      -0.102600
      6 C6A          9.0450     1.9110     2.1090 ca         1 1XE       0.404900
      7 N6A         10.2370     2.5120     2.1280 nv         1 1XE      -1.107900
      8 N7A          9.5550     0.0370     0.4620 nc         1 1XE      -0.660100
      9 C8A          8.7610    -0.8970     0.0380 cd         1 1XE       0.435700
     10 N9A          7.4950    -0.8310     0.5700 na         1 1XE      -0.120000
     11 C1B          6.4450    -1.7070     0.3230 cc         1 1XE      -0.040400
     12 C2B          6.0930    -2.8740     0.9510 c          1 1XE       0.413000
     13 O2B          6.6740    -3.4780     1.9310 o          1 1XE      -0.777100
     14 C3B          4.8880    -3.2760     0.2270 cc         1 1XE      -0.008100
     15 O3B          4.1690    -4.4060     0.4050 os         1 1XE      -0.468500
     16 P3B          3.7380    -4.9000     1.9630 p5         1 1XE       1.404800
     17 O7A          3.1700    -3.7030     2.6640 o          1 1XE      -0.855000
     18 O8A          2.9090    -6.1270     1.7390 o          1 1XE      -0.855000
     19 O9A          5.1650    -5.3200     2.5590 oh         1 1XE      -0.909400
     20 C4B          4.6340    -2.3350    -0.7160 cd         1 1XE       0.015900
     21 O4B          5.5810    -1.3710    -0.6820 os         1 1XE      -0.267700
     22 C5B          3.5780    -2.2390    -1.7460 c3         1 1XE       0.297800
     23 O5B          2.7670    -1.1020    -1.4940 os         1 1XE      -0.565400
     24 P1A          1.8500    -0.5610    -2.7510 p5         1 1XE       1.467800
     25 O1A          0.9300    -1.6550    -3.1940 o          1 1XE      -0.868500
     26 O2A          2.7180     0.1460    -3.7450 o          1 1XE      -0.868500
     27 O3A          1.0440     0.5260    -1.8220 os         1 1XE      -0.678800
     28 P2A          0.2940     1.8550    -2.4320 p5         1 1XE       1.452800
     29 O4A         -0.3640     1.5290    -3.7370 o          1 1XE      -0.859000
     30 O5A          1.1940     3.0460    -2.3200 o          1 1XE      -0.859000
     31 O6A         -0.8310     1.8940    -1.2360 os         1 1XE      -0.566400
     32 CBP         -1.8080     3.5560     0.2190 c3         1 1XE      -0.075000
     33 CCP         -1.7290     2.9860    -1.2010 c3         1 1XE       0.239600
     34 CDP         -2.2520     2.4700     1.2000 c3         1 1XE      -0.074100
     35 CEP         -0.4360     4.0820     0.6490 c3         1 1XE      -0.074100
     36 CAP         -2.8040     4.7480     0.2700 c3         1 1XE       0.105300
     37 OAP         -2.4330     5.8050    -0.5760 oh         1 1XE      -0.658000
     38 C9P         -4.2420     4.3500    -0.0630 c          1 1XE       0.569100
     39 O9P         -4.6290     4.3570    -1.2260 o          1 1XE      -0.617100
     40 N8P         -5.0270     4.0280     0.9700 ns         1 1XE      -0.511900
     41 C7P         -6.3910     3.5700     0.8170 c3         1 1XE       0.123000
     42 C6P         -6.4550     2.0720     0.5490 c3         1 1XE      -0.193400
     43 C5P         -7.8710     1.5670     0.4130 c          1 1XE       0.615100
     44 O5P         -8.8520     2.2640     0.5910 o          1 1XE      -0.605100
     45 N4P         -7.9600     0.2490     0.0780 ns         1 1XE      -0.418100
     46 C3P         -9.1550    -0.4260    -0.0770 c2         1 1XE       0.002600
     47 C2P         -9.2350    -1.7360    -0.3290 c2         1 1XE      -0.245400
     48 S1P        -10.7750    -2.4880    -0.7160 ss         1 1XE      -0.327600
     49 C1         -10.7880    -3.9130     0.4110 c3         1 1XE       0.012600
     50 C2         -11.1940    -3.5880     1.8410 c3         1 1XE       0.390300
     51 O21        -10.2650    -2.7800     2.5000 oh         1 1XE      -0.679500
     52 O1         -12.4670    -3.0210     1.8010 oh         1 1XE      -0.679500
     53 H1           6.1120     2.2280     3.4850 h5         1 1XE       0.025100
     54 H2          10.9830     2.2040     1.5300 hn         1 1XE       0.474500
     55 H3          10.3720     3.3500     2.6670 hn         1 1XE       0.474500
     56 H4           9.0210    -1.6770    -0.6620 h5         1 1XE       0.056800
     57 H5           5.8730    -4.5740     2.3590 ho         1 1XE       0.514000
     58 H8           4.0340    -2.1790    -2.7430 h1         1 1XE       0.018200
     59 H9           2.9870    -3.1590    -1.7210 h1         1 1XE       0.018200
     60 H12         -1.4200     3.7800    -1.8900 h1         1 1XE       0.009700
     61 H13         -2.7120     2.6370    -1.5290 h1         1 1XE       0.009700
     62 H14         -1.5030     1.6810     1.2630 hc         1 1XE       0.037700
     63 H15         -2.3730     2.8770     2.2070 hc         1 1XE       0.037700
     64 H16         -3.1950     2.0020     0.9120 hc         1 1XE       0.037700
     65 H17         -0.0800     4.8750    -0.0070 hc         1 1XE       0.037700
     66 H18         -0.4820     4.4780     1.6660 hc         1 1XE       0.037700
     67 H19          0.3040     3.2850     0.6350 hc         1 1XE       0.037700
     68 H20         -2.7720     5.1360     1.2950 h1         1 1XE       0.043700
     69 H21         -2.8270     5.6420    -1.4420 ho         1 1XE       0.466000
     70 H22         -4.6440     4.0530     1.9010 hn         1 1XE       0.317500
     71 H23         -6.9240     3.8190     1.7330 h1         1 1XE       0.052200
     72 H24         -6.8620     4.1260     0.0070 h1         1 1XE       0.052200
     73 H25         -5.8990     1.8250    -0.3590 hc         1 1XE       0.093700
     74 H26         -5.9690     1.5240     1.3630 hc         1 1XE       0.093700
     75 H27         -7.1030    -0.2690    -0.0510 hn         1 1XE       0.343500
     76 H28        -10.0420     0.1880     0.0060 h4         1 1XE       0.211000
     77 H29         -8.3450    -2.3550    -0.4030 h4         1 1XE       0.204000
     78 H30        -11.4890    -4.6290    -0.0200 h1         1 1XE       0.082200
     79 H31         -9.8020    -4.3810     0.4040 h1         1 1XE       0.082200
     80 H32        -10.1100    -1.9820     1.9790 ho         1 1XE       0.455000
     81 H33        -12.7930    -2.9360     2.7030 ho         1 1XE       0.455000
     82 H34        -11.1990    -4.5270     2.4080 h2         1 1XE       0.051700
@<TRIPOS>BOND
     1     1     2 ar  
     2     1     6 ar  
     3     2     3 ar  
     4     2    53 1   
     5     3     4 ar  
     6     4     5 ar  
     7     4    10 1   
     8     5     6 ar  
     9     5     8 1   
    10     6     7 1   
    11     7    54 1   
    12     7    55 1   
    13     8     9 2   
    14     9    10 1   
    15     9    56 1   
    16    10    11 2   
    17    11    12 1   
    18    11    21 1   
    19    12    13 2   
    20    12    14 1   
    21    14    15 1   
    22    14    20 2   
    23    15    16 1   
    24    16    17 1   
    25    16    18 1   
    26    16    19 1   
    27    19    57 1   
    28    20    21 1   
    29    20    22 1   
    30    22    23 1   
    31    22    58 1   
    32    22    59 1   
    33    23    24 1   
    34    24    25 1   
    35    24    26 1   
    36    24    27 1   
    37    27    28 1   
    38    28    29 1   
    39    28    30 1   
    40    28    31 1   
    41    31    33 1   
    42    32    33 1   
    43    32    34 1   
    44    32    35 1   
    45    32    36 1   
    46    33    60 1   
    47    33    61 1   
    48    34    62 1   
    49    34    63 1   
    50    34    64 1   
    51    35    65 1   
    52    35    66 1   
    53    35    67 1   
    54    36    37 1   
    55    36    38 1   
    56    36    68 1   
    57    37    69 1   
    58    38    39 2   
    59    38    40 1   
    60    40    41 1   
    61    40    70 1   
    62    41    42 1   
    63    41    71 1   
    64    41    72 1   
    65    42    43 1   
    66    42    73 1   
    67    42    74 1   
    68    43    44 2   
    69    43    45 1   
    70    45    46 1   
    71    45    75 1   
    72    46    47 2   
    73    46    76 1   
    74    47    48 1   
    75    47    77 1   
    76    48    49 1   
    77    49    50 1   
    78    49    78 1   
    79    49    79 1   
    80    50    51 1   
    81    50    52 1   
    82    50    82 1   
    83    51    80 1   
    84    52    81 1   
@<TRIPOS>SUBSTRUCTURE
     1 1XE         1 TEMP              0 ****  ****    0 ROOT
