@<TRIPOS>MOLECULE
1XF
   26    26     1     0     0
SMALL
No Charge or Current Charge


@<TRIPOS>ATOM
      1 C01         -4.5140     1.5260     0.0480 ca         1 1XF      -0.174000
      2 C02         -3.4760     2.4610    -0.0260 ca         1 1XF      -0.106000
      3 C03         -2.1420     2.0260    -0.0320 ca         1 1XF      -0.175000
      4 C04         -1.8270     0.6500     0.0410 ca         1 1XF       0.002000
      5 C05         -2.8830    -0.3030     0.1030 ca         1 1XF      -0.195600
      6 C06         -4.2220     0.1560     0.1110 ca         1 1XF      -0.063000
      7 C07         -2.6290    -1.8010     0.1730 c          1 1XF       0.723600
      8 O08         -3.4420    -2.4950     0.7660 o          1 1XF      -0.703000
      9 O09         -1.6360    -2.2580    -0.3750 o          1 1XF      -0.703000
     10 N10         -0.4790     0.1910     0.0380 ns         1 1XF      -0.163000
     11 C11          0.7390     0.8260     0.2280 c          1 1XF       0.615100
     12 O12          0.8570     2.0160     0.5100 o          1 1XF      -0.632100
     13 C13          1.9470    -0.1170     0.0680 c3         1 1XF      -0.020400
     14 S14          3.6120     0.7030     0.2700 ss         1 1XF      -0.323600
     15 C15          4.6970    -0.7180     0.0120 c          1 1XF       0.628700
     16 O16          4.3280    -1.8540    -0.2240 o          1 1XF      -0.591100
     17 N17          5.9970    -0.3890     0.1080 nt         1 1XF      -0.607000
     18 H1          -5.5490     1.8620     0.0520 ha         1 1XF       0.090000
     19 H2          -3.7020     3.5230    -0.0830 ha         1 1XF       0.086000
     20 H3          -1.3630     2.7790    -0.1050 ha         1 1XF       0.128000
     21 H4          -5.0440    -0.5560     0.1600 ha         1 1XF       0.127000
     22 H6          -0.4040    -0.8030    -0.1540 hn         1 1XF       0.237000
     23 H7           1.8450    -0.9180     0.8100 h1         1 1XF       0.099200
     24 H8           1.8870    -0.5700    -0.9300 h1         1 1XF       0.099200
     25 H9           6.2590     0.5660     0.3050 hn         1 1XF       0.312500
     26 H10          6.6990    -1.1020    -0.0180 hn         1 1XF       0.312500
@<TRIPOS>BOND
     1     1     2 ar  
     2     1     6 ar  
     3     1    18 1   
     4     2     3 ar  
     5     2    19 1   
     6     3     4 ar  
     7     3    20 1   
     8     4     5 ar  
     9     4    10 1   
    10     5     6 ar  
    11     5     7 1   
    12     6    21 1   
    13     7     8 1   
    14     7     9 1   
    15    10    11 1   
    16    10    22 1   
    17    11    12 2   
    18    11    13 1   
    19    13    14 1   
    20    13    23 1   
    21    13    24 1   
    22    14    15 1   
    23    15    16 2   
    24    15    17 1   
    25    17    25 1   
    26    17    26 1   
@<TRIPOS>SUBSTRUCTURE
     1 1XF         1 TEMP              0 ****  ****    0 ROOT
