@<TRIPOS>MOLECULE
1XF
   26    26     1     0     0
SMALL
abcg2


@<TRIPOS>ATOM
      1 C01         -4.4040     1.5620     0.0840 ca         1 1XF      -0.174000
      2 C02         -3.3460     2.4590     0.0830 ca         1 1XF      -0.106000
      3 C03         -2.0360     2.0080     0.0790 ca         1 1XF      -0.175000
      4 C04         -1.7620     0.6370     0.0760 ca         1 1XF       0.002000
      5 C05         -2.8300    -0.2890     0.0780 ca         1 1XF      -0.195600
      6 C06         -4.1310     0.2040     0.0820 ca         1 1XF      -0.063000
      7 C07         -2.6350    -1.8030     0.0750 c          1 1XF       0.723600
      8 O08         -3.6510    -2.5080     0.0800 o          1 1XF      -0.703000
      9 O09         -1.4500    -2.2380     0.0670 o          1 1XF      -0.703000
     10 N10         -0.4720     0.1120     0.0720 ns         1 1XF      -0.163000
     11 C11          0.7170     0.7360     0.0740 c          1 1XF       0.615100
     12 O12          0.9070     1.9420     0.0780 o          1 1XF      -0.632100
     13 C13          1.8760    -0.2460     0.0740 c3         1 1XF      -0.020400
     14 S14          3.4130     0.7010     0.0370 ss         1 1XF      -0.323600
     15 C15          4.5810    -0.6530     0.0480 c          1 1XF       0.628700
     16 O16          4.2440    -1.8190     0.0680 o          1 1XF      -0.591100
     17 N17          5.8490    -0.2220     0.0240 nt         1 1XF      -0.607000
     18 H1          -5.4270     1.9150     0.0870 ha         1 1XF       0.090000
     19 H2          -3.5330     3.5250     0.0840 ha         1 1XF       0.086000
     20 H3          -1.2310     2.7240     0.0770 ha         1 1XF       0.128000
     21 H4          -4.9470    -0.5050     0.0830 ha         1 1XF       0.127000
     22 H6          -0.5230    -0.9310     0.0680 hn         1 1XF       0.237000
     23 H7           1.8380    -0.8720     0.9670 h1         1 1XF       0.099200
     24 H8           1.8140    -0.9020    -0.7950 h1         1 1XF       0.099200
     25 H9           6.0930     0.7540     0.0440 hn         1 1XF       0.312500
     26 H10          6.6020    -0.8890     0.0630 hn         1 1XF       0.312500
@<TRIPOS>BOND
     1     1     2 ar  
     2     1     6 ar  
     3     1    18 1   
     4     2     3 ar  
     5     2    19 1   
     6     3     4 ar  
     7     3    20 1   
     8     4     5 ar  
     9     4    10 1   
    10     5     6 ar  
    11     5     7 1   
    12     6    21 1   
    13     7     8 1   
    14     7     9 1   
    15    10    11 1   
    16    10    22 1   
    17    11    12 2   
    18    11    13 1   
    19    13    14 1   
    20    13    23 1   
    21    13    24 1   
    22    14    15 1   
    23    15    16 2   
    24    15    17 1   
    25    17    25 1   
    26    17    26 1   
@<TRIPOS>SUBSTRUCTURE
     1 1XF         1 TEMP              0 ****  ****    0 ROOT
