@<TRIPOS>MOLECULE
1XG
   35    34     1     0     0
SMALL
bcc


@<TRIPOS>ATOM
      1 C1           4.2500     1.4730     0.2040 c          1 1XG       0.684100
      2 N1           5.4790     1.2380     0.6770 nt         1 1XG      -0.672000
      3 O1           1.6050    -2.2370    -0.2440 o          1 1XG      -0.519100
      4 C2           3.1920     0.4660     0.6150 c3         1 1XG      -0.197400
      5 O2           3.9730     2.4320    -0.5010 o          1 1XG      -0.601100
      6 C3           2.4640    -0.0600    -0.6260 c3         1 1XG       0.058100
      7 O3           3.3520    -0.6360    -1.5400 oh         1 1XG      -0.570800
      8 C4           1.3900    -1.0480    -0.1850 c          1 1XG       0.538100
      9 C5           0.0960    -0.4680     0.3050 c3         1 1XG      -0.177400
     10 C6          -0.8780    -1.4830     0.8940 c3         1 1XG      -0.029200
     11 C7          -2.1320    -0.8110     1.3580 c2         1 1XG      -0.182200
     12 C8          -3.3270    -0.9670     0.7970 c2         1 1XG      -0.152200
     13 C9          -4.5730    -0.2450     1.2200 c3         1 1XG      -0.008000
     14 C10         -4.9930     0.7550     0.1810 c2         1 1XG      -0.173200
     15 C11         -6.1270     0.7080    -0.5110 c2         1 1XG      -0.163200
     16 C12         -6.5320     1.6950    -1.5570 c3         1 1XG      -0.056900
     17 H1           5.6890     0.4320     1.2400 hn         1 1XG       0.314500
     18 H2           6.2390     1.8630     0.4600 hn         1 1XG       0.314500
     19 H3           3.6220    -0.3640     1.1810 hc         1 1XG       0.064200
     20 H4           2.4920     0.9780     1.2810 hc         1 1XG       0.064200
     21 H5           1.9820     0.7830    -1.1290 h1         1 1XG       0.108700
     22 H6           3.5900    -1.5150    -1.2220 ho         1 1XG       0.416000
     23 H7           0.3100     0.3310     1.0230 hc         1 1XG       0.068700
     24 H8          -0.3610     0.0450    -0.5490 hc         1 1XG       0.068700
     25 H9          -1.1140    -2.2460     0.1500 hc         1 1XG       0.056700
     26 H10         -0.4010    -1.9960     1.7340 hc         1 1XG       0.056700
     27 H11         -2.0310    -0.1310     2.2010 ha         1 1XG       0.116000
     28 H12         -3.4300    -1.6360    -0.0550 ha         1 1XG       0.121000
     29 H13         -5.3840    -0.9610     1.3850 hc         1 1XG       0.050200
     30 H14         -4.3940     0.2630     2.1720 hc         1 1XG       0.050200
     31 H15         -4.2850     1.5590    -0.0110 ha         1 1XG       0.118000
     32 H16         -6.8240    -0.1040    -0.3170 ha         1 1XG       0.115000
     33 H17         -7.4850     2.1670    -1.3080 hc         1 1XG       0.039700
     34 H18         -5.7870     2.4810    -1.6810 hc         1 1XG       0.039700
     35 H19         -6.6710     1.2070    -2.5250 hc         1 1XG       0.039700
@<TRIPOS>BOND
     1     1     2 1   
     2     1     4 1   
     3     1     5 2   
     4     2    17 1   
     5     2    18 1   
     6     3     8 2   
     7     4     6 1   
     8     4    19 1   
     9     4    20 1   
    10     6     7 1   
    11     6     8 1   
    12     6    21 1   
    13     7    22 1   
    14     8     9 1   
    15     9    10 1   
    16     9    23 1   
    17     9    24 1   
    18    10    11 1   
    19    10    25 1   
    20    10    26 1   
    21    11    12 2   
    22    11    27 1   
    23    12    13 1   
    24    12    28 1   
    25    13    14 1   
    26    13    29 1   
    27    13    30 1   
    28    14    15 2   
    29    14    31 1   
    30    15    16 1   
    31    15    32 1   
    32    16    33 1   
    33    16    34 1   
    34    16    35 1   
@<TRIPOS>SUBSTRUCTURE
     1 1XG         1 TEMP              0 ****  ****    0 ROOT
