@<TRIPOS>MOLECULE
1XG
   35    34     1     0     0
SMALL
No Charge or Current Charge


@<TRIPOS>ATOM
      1 C1           4.3520     0.8240     1.2890 c          1 1XG       0.617100
      2 N1           5.4100     0.0850     1.6830 nt         1 1XG      -0.605000
      3 O1           1.4620    -1.5920    -1.7600 o          1 1XG      -0.519100
      4 C2           3.0930     0.0540     0.8950 c3         1 1XG      -0.197400
      5 O2           4.4130     2.0420     1.2900 o          1 1XG      -0.601100
      6 C3           2.8980     0.0290    -0.6420 c3         1 1XG       0.081300
      7 O3           4.0040    -0.6910    -1.2370 oh         1 1XG      -0.633000
      8 C4           1.5230    -0.5740    -1.0780 c          1 1XG       0.538100
      9 C5           0.2500     0.1850    -0.6690 c3         1 1XG      -0.177400
     10 C6          -0.5160    -0.5420     0.4580 c3         1 1XG      -0.029200
     11 C7          -1.7610     0.2160     0.8690 c2         1 1XG      -0.232200
     12 C8          -3.0210    -0.2090     0.6870 c2         1 1XG      -0.202200
     13 C9          -4.2670     0.5430     1.1040 c3         1 1XG      -0.008000
     14 C10         -5.2320     0.6650    -0.0550 c2         1 1XG      -0.223200
     15 C11         -6.5320     0.3330    -0.0210 c2         1 1XG      -0.213200
     16 C12         -7.4960     0.4610    -1.1810 c3         1 1XG      -0.056900
     17 H1           5.3530    -0.9220     1.6650 hn         1 1XG       0.314500
     18 H2           6.2630     0.5490     1.9560 hn         1 1XG       0.314500
     19 H3           3.1530    -0.9810     1.2550 hc         1 1XG       0.064200
     20 H4           2.2370     0.5590     1.3550 hc         1 1XG       0.064200
     21 H5           2.8890     1.0690    -1.0020 h1         1 1XG       0.108700
     22 H6           3.6110    -1.4110    -1.7840 ho         1 1XG       0.455000
     23 H7           0.5160     1.1880    -0.3170 hc         1 1XG       0.068700
     24 H8          -0.4100     0.2600    -1.5410 hc         1 1XG       0.068700
     25 H9          -0.7810    -1.5520     0.1170 hc         1 1XG       0.056700
     26 H10          0.1390    -0.6740     1.3280 hc         1 1XG       0.056700
     27 H11         -1.5650     1.1750     1.3530 ha         1 1XG       0.166000
     28 H12         -3.2190    -1.1710     0.2080 ha         1 1XG       0.171000
     29 H13         -4.7440     0.0250     1.9460 hc         1 1XG       0.050200
     30 H14         -4.0030     1.5430     1.4710 hc         1 1XG       0.050200
     31 H15         -4.7860     1.0670    -0.9670 ha         1 1XG       0.168000
     32 H16         -6.9800    -0.0660     0.8920 ha         1 1XG       0.165000
     33 H17         -8.3270     1.1300    -0.9280 hc         1 1XG       0.039700
     34 H18         -7.0040     0.8650    -2.0750 hc         1 1XG       0.039700
     35 H19         -7.9210    -0.5140    -1.4470 hc         1 1XG       0.039700
@<TRIPOS>BOND
     1     1     2 1   
     2     1     4 1   
     3     1     5 2   
     4     2    17 1   
     5     2    18 1   
     6     3     8 2   
     7     4     6 1   
     8     4    19 1   
     9     4    20 1   
    10     6     7 1   
    11     6     8 1   
    12     6    21 1   
    13     7    22 1   
    14     8     9 1   
    15     9    10 1   
    16     9    23 1   
    17     9    24 1   
    18    10    11 1   
    19    10    25 1   
    20    10    26 1   
    21    11    12 2   
    22    11    27 1   
    23    12    13 1   
    24    12    28 1   
    25    13    14 1   
    26    13    29 1   
    27    13    30 1   
    28    14    15 2   
    29    14    31 1   
    30    15    16 1   
    31    15    32 1   
    32    16    33 1   
    33    16    34 1   
    34    16    35 1   
@<TRIPOS>SUBSTRUCTURE
     1 1XG         1 TEMP              0 ****  ****    0 ROOT
