@<TRIPOS>MOLECULE
1XH
   51    53     1     0     0
SMALL
No Charge or Current Charge


@<TRIPOS>ATOM
      1 CAA         -3.3340     2.9100     0.6770 c2         1 1XH      -0.326000
      2 CAB         -2.2770    -3.0990    -0.6160 c3         1 1XH      -0.085100
      3 CAC         -1.2970     1.2660     1.8420 c3         1 1XH      -0.089100
      4 CAD          0.4390    -1.9920    -1.3790 c3         1 1XH      -0.093100
      5 CAG          4.5320     1.0560    -0.0550 cc         1 1XH      -0.235200
      6 CAH          4.5160    -0.3110    -0.2720 cd         1 1XH      -0.239200
      7 CAI          2.2130     0.9340     0.8260 cc         1 1XH      -0.259200
      8 CAJ         -2.1280     1.4470    -2.3630 c6         1 1XH      -0.073400
      9 CAK         -3.3310     1.6950    -1.4610 c6         1 1XH      -0.044200
     10 CAL         -1.4790     0.1180    -1.9680 c6         1 1XH      -0.073400
     11 CAM         -2.2450    -1.7180     1.5300 c6         1 1XH      -0.072400
     12 CAN         -2.9770    -0.4560     1.0120 c6         1 1XH      -0.064400
     13 CAO          0.9110    -1.2750     0.9320 c3         1 1XH      -0.047200
     14 CAP         -2.8910     1.8350    -0.0120 c2         1 1XH      -0.105400
     15 CAQ          2.1440    -0.4340     0.5900 cd         1 1XH      -0.114400
     16 CAR          3.3840     1.7710     0.5180 c          1 1XH       0.547500
     17 CAS          3.3440    -1.1590     0.0370 c          1 1XH       0.545500
     18 CAT         -1.3660    -2.3660     0.4270 c6         1 1XH      -0.051700
     19 CAU         -0.9320     0.0950    -0.4950 c6         1 1XH      -0.028700
     20 CAV         -2.0040     0.6760     0.5680 c6         1 1XH       0.008200
     21 CAW         -0.2770    -1.3460    -0.1310 c6         1 1XH      -0.014000
     22 HAA         -3.9660     3.6620     0.2050 ha         1 1XH       0.163000
     23 HAAA        -3.1130     3.1010     1.7240 ha         1 1XH       0.163000
     24 HAB         -2.9310    -2.4260    -1.1750 hc         1 1XH       0.033367
     25 HABA        -1.6970    -3.6880    -1.3340 hc         1 1XH       0.033367
     26 HABB        -2.9350    -3.8140    -0.1070 hc         1 1XH       0.033367
     27 HAC         -0.5880     0.5990     2.3190 hc         1 1XH       0.035033
     28 HACA        -0.7620     2.1920     1.6040 hc         1 1XH       0.035033
     29 HACB        -2.0180     1.4950     2.6340 hc         1 1XH       0.035033
     30 HAD          0.9210    -2.9430    -1.1210 hc         1 1XH       0.037367
     31 HADA        -0.2450    -2.2190    -2.2020 hc         1 1XH       0.037367
     32 HADB         1.2090    -1.3300    -1.7940 hc         1 1XH       0.037367
     33 HAH          5.3680    -0.8430    -0.6810 ha         1 1XH       0.207000
     34 HAI          1.3900     1.4820     1.2600 ha         1 1XH       0.209000
     35 HAJ         -2.4490     1.4100    -3.4130 hc         1 1XH       0.042200
     36 HAJA        -1.4060     2.2710    -2.2760 hc         1 1XH       0.042200
     37 HAK         -3.8580     2.5960    -1.8030 hc         1 1XH       0.045700
     38 HAKA        -4.0500     0.8700    -1.5570 hc         1 1XH       0.045700
     39 HAL         -2.1990    -0.6870    -2.1430 hc         1 1XH       0.039700
     40 HALA        -0.6600    -0.0410    -2.6810 hc         1 1XH       0.039700
     41 HAM         -1.6420    -1.4770     2.4130 hc         1 1XH       0.038700
     42 HAMA        -2.9890    -2.4450     1.8840 hc         1 1XH       0.038700
     43 HAN         -3.6400    -0.7300     0.1820 hc         1 1XH       0.042700
     44 HANA        -3.6460    -0.0810     1.7990 hc         1 1XH       0.042700
     45 HAO          1.2480    -2.3010     1.1240 hc         1 1XH       0.063700
     46 H26          0.5590    -1.0000     1.9240 hc         1 1XH       0.063700
     47 HAT         -0.8300    -3.1980     0.9050 hc         1 1XH       0.041700
     48 HAU         -0.1100     0.8210    -0.5190 hc         1 1XH       0.043700
     49 H12          5.3970     1.6690    -0.2840 ha         1 1XH       0.208000
     50 OAE          3.4000     2.9750     0.7260 o          1 1XH      -0.491100
     51 OAF          3.3870    -2.3670    -0.1520 o          1 1XH      -0.491100
@<TRIPOS>BOND
     1     1    14 2   
     2     1    22 1   
     3     1    23 1   
     4     2    18 1   
     5     2    24 1   
     6     2    25 1   
     7     2    26 1   
     8     3    20 1   
     9     3    27 1   
    10     3    28 1   
    11     3    29 1   
    12     4    21 1   
    13     4    30 1   
    14     4    31 1   
    15     4    32 1   
    16     5     6 2   
    17     5    16 1   
    18     5    49 1   
    19     6    17 1   
    20     6    33 1   
    21     7    15 2   
    22     7    16 1   
    23     7    34 1   
    24     8     9 1   
    25     8    10 1   
    26     8    35 1   
    27     8    36 1   
    28     9    14 1   
    29     9    37 1   
    30     9    38 1   
    31    10    19 1   
    32    10    39 1   
    33    10    40 1   
    34    11    12 1   
    35    11    18 1   
    36    11    41 1   
    37    11    42 1   
    38    12    20 1   
    39    12    43 1   
    40    12    44 1   
    41    13    15 1   
    42    13    21 1   
    43    13    45 1   
    44    13    46 1   
    45    14    20 1   
    46    15    17 1   
    47    16    50 2   
    48    17    51 2   
    49    18    21 1   
    50    18    47 1   
    51    19    20 1   
    52    19    21 1   
    53    19    48 1   
@<TRIPOS>SUBSTRUCTURE
     1 1XH         1 TEMP              0 ****  ****    0 ROOT
