@<TRIPOS>MOLECULE
1XH
   51    53     1     0     0
SMALL
abcg2


@<TRIPOS>ATOM
      1 CAA         -3.0620     2.9470     0.6240 c2         1 1XH      -0.326000
      2 CAB         -2.1510    -3.0450    -0.6670 c3         1 1XH      -0.085100
      3 CAC         -1.3610     1.1380     1.8850 c3         1 1XH      -0.089100
      4 CAD          0.4310    -1.8550    -1.3410 c3         1 1XH      -0.093100
      5 CAG          4.4540     0.9790    -0.1990 cc         1 1XH      -0.235200
      6 CAH          4.4100    -0.3450    -0.3290 cd         1 1XH      -0.239200
      7 CAI          2.1420     0.9260     0.8070 cc         1 1XH      -0.259200
      8 CAJ         -2.1780     1.4010    -2.3140 c6         1 1XH      -0.073400
      9 CAK         -3.3650     1.6030    -1.3870 c6         1 1XH      -0.044200
     10 CAL         -1.4380     0.1400    -1.9090 c6         1 1XH      -0.073400
     11 CAM         -2.2620    -1.7300     1.4580 c6         1 1XH      -0.072400
     12 CAN         -2.9850    -0.4940     0.9470 c6         1 1XH      -0.064400
     13 CAO          0.8240    -1.1940     0.9910 c3         1 1XH      -0.047200
     14 CAP         -2.8280     1.7920    -0.0000 c2         1 1XH      -0.105400
     15 CAQ          2.0460    -0.4000     0.6400 cd         1 1XH      -0.114400
     16 CAR          3.3270     1.7070     0.4170 c          1 1XH       0.547500
     17 CAS          3.2540    -1.1340     0.1490 c          1 1XH       0.545500
     18 CAT         -1.3270    -2.3200     0.4020 c6         1 1XH      -0.051700
     19 CAU         -0.9340     0.1240    -0.4500 c6         1 1XH      -0.028700
     20 CAV         -2.0070     0.6400     0.5860 c6         1 1XH       0.008200
     21 CAW         -0.2870    -1.2740    -0.1130 c6         1 1XH      -0.014000
     22 HAA         -3.6760     3.7050     0.1510 ha         1 1XH       0.163000
     23 HAAA        -2.6710     3.2040     1.5970 ha         1 1XH       0.163000
     24 HAB         -2.7930    -2.3840    -1.2460 hc         1 1XH       0.033367
     25 HABA        -1.5270    -3.5980    -1.3670 hc         1 1XH       0.033367
     26 HABB        -2.8020    -3.7720    -0.1780 hc         1 1XH       0.033367
     27 HAC         -0.8070     0.3760     2.4190 hc         1 1XH       0.035033
     28 HACA        -0.6850     1.9740     1.7030 hc         1 1XH       0.035033
     29 HACB        -2.1290     1.4790     2.5790 hc         1 1XH       0.035033
     30 HAD          0.9270    -2.7890    -1.0700 hc         1 1XH       0.037367
     31 HADA        -0.2400    -2.0800    -2.1650 hc         1 1XH       0.037367
     32 HADB         1.1920    -1.1750    -1.7310 hc         1 1XH       0.037367
     33 HAH          5.2340    -0.9020    -0.7570 ha         1 1XH       0.207000
     34 HAI          1.3290     1.4960     1.2390 ha         1 1XH       0.209000
     35 HAJ         -2.5040     1.3160    -3.3530 hc         1 1XH       0.042200
     36 HAJA        -1.5180     2.2720    -2.2570 hc         1 1XH       0.042200
     37 HAK         -3.9640     2.4660    -1.6830 hc         1 1XH       0.045700
     38 HAKA        -4.0170     0.7260    -1.4480 hc         1 1XH       0.045700
     39 HAL         -2.0980    -0.7070    -2.1090 hc         1 1XH       0.039700
     40 HALA        -0.5830     0.0170    -2.5740 hc         1 1XH       0.039700
     41 HAM         -1.7070    -1.4910     2.3680 hc         1 1XH       0.038700
     42 HAMA        -2.9930    -2.4880     1.7500 hc         1 1XH       0.038700
     43 HAN         -3.5980    -0.7640     0.0830 hc         1 1XH       0.042700
     44 HANA        -3.6820    -0.1260     1.7050 hc         1 1XH       0.042700
     45 HAO          1.1370    -2.2190     1.1920 hc         1 1XH       0.063700
     46 H26          0.4310    -0.8190     1.9310 hc         1 1XH       0.063700
     47 HAT         -0.7420    -3.1080     0.8920 hc         1 1XH       0.041700
     48 HAU         -0.1240     0.8640    -0.4290 hc         1 1XH       0.043700
     49 H12          5.3090     1.5580    -0.5270 ha         1 1XH       0.208000
     50 OAE          3.3720     2.9100     0.5850 o          1 1XH      -0.491100
     51 OAF          3.3150    -2.3450     0.1680 o          1 1XH      -0.491100
@<TRIPOS>BOND
     1     1    14 2   
     2     1    22 1   
     3     1    23 1   
     4     2    18 1   
     5     2    24 1   
     6     2    25 1   
     7     2    26 1   
     8     3    20 1   
     9     3    27 1   
    10     3    28 1   
    11     3    29 1   
    12     4    21 1   
    13     4    30 1   
    14     4    31 1   
    15     4    32 1   
    16     5     6 2   
    17     5    16 1   
    18     5    49 1   
    19     6    17 1   
    20     6    33 1   
    21     7    15 2   
    22     7    16 1   
    23     7    34 1   
    24     8     9 1   
    25     8    10 1   
    26     8    35 1   
    27     8    36 1   
    28     9    14 1   
    29     9    37 1   
    30     9    38 1   
    31    10    19 1   
    32    10    39 1   
    33    10    40 1   
    34    11    12 1   
    35    11    18 1   
    36    11    41 1   
    37    11    42 1   
    38    12    20 1   
    39    12    43 1   
    40    12    44 1   
    41    13    15 1   
    42    13    21 1   
    43    13    45 1   
    44    13    46 1   
    45    14    20 1   
    46    15    17 1   
    47    16    50 2   
    48    17    51 2   
    49    18    21 1   
    50    18    47 1   
    51    19    20 1   
    52    19    21 1   
    53    19    48 1   
@<TRIPOS>SUBSTRUCTURE
     1 1XH         1 TEMP              0 ****  ****    0 ROOT
