@<TRIPOS>MOLECULE
1XI
   44    46     1     0     0
SMALL
No Charge or Current Charge


@<TRIPOS>ATOM
      1 C5          -1.7740    30.3870    25.6870 c5         1 1XI       0.184500
      2 C6          -3.3310    30.2730    25.5920 c6         1 1XI       0.103300
      3 C7          -3.7220    29.6900    24.1940 c6         1 1XI       0.152300
      4 N1          -3.4040    27.6930    22.6420 ns         1 1XI      -0.495900
      5 N2          -1.1260    29.0840    25.3720 nh         1 1XI      -0.723600
      6 C3          -1.4440    28.4710    24.0530 c6         1 1XI       0.193800
      7 C33         -3.7780    27.3390    20.2550 c3         1 1XI      -0.182100
      8 C32         -3.1970    28.1900    21.3760 c          1 1XI       0.606100
      9 O34         -2.5900    29.2290    21.1630 o          1 1XI      -0.609100
     10 C2          -2.9910    28.3290    23.9140 c6         1 1XI       0.097700
     11 C22         -1.0010    28.2780    26.4980 c2         1 1XI       0.676100
     12 N23         -0.8080    27.0140    26.4010 n2         1 1XI      -0.652900
     13 C24         -0.7490    26.1030    27.5520 c3         1 1XI       0.181100
     14 C26         -2.0500    25.3190    27.6710 ca         1 1XI      -0.074300
     15 C27         -3.0940    25.7920    28.4900 ca         1 1XI      -0.101000
     16 C28         -4.2970    25.0720    28.5940 ca         1 1XI      -0.112500
     17 C29         -4.4630    23.8740    27.8790 ca         1 1XI      -0.112000
     18 C30         -3.4270    23.3980    27.0590 ca         1 1XI      -0.112500
     19 C31         -2.2240    24.1180    26.9540 ca         1 1XI      -0.101000
     20 S21         -1.2700    29.1700    28.0180 ss         1 1XI      -0.396200
     21 C20         -1.2040    30.7540    27.0810 c5         1 1XI       0.060600
     22 O9          -3.9820    31.5460    25.7910 oh         1 1XI      -0.659000
     23 O8          -5.1520    29.5430    24.1190 oh         1 1XI      -0.656000
     24 H5          -1.4720    31.1520    24.9560 h1         1 1XI       0.102700
     25 H6          -3.6720    29.5580    26.3560 h1         1 1XI       0.056700
     26 H7          -3.3880    30.4100    23.4310 h1         1 1XI       0.073700
     27 HN1         -3.9350    26.8330    22.6970 hn         1 1XI       0.319500
     28 H3          -0.9510    27.4980    23.9130 h1         1 1XI       0.087700
     29 H31         -1.0760    29.1270    23.2510 h1         1 1XI       0.087700
     30 H33         -3.5890    27.7630    19.2620 hc         1 1XI       0.061700
     31 H331        -3.3870    26.3190    20.3410 hc         1 1XI       0.061700
     32 H332        -4.8490    27.1950    20.4360 hc         1 1XI       0.061700
     33 H2          -3.3060    27.6370    24.7080 h1         1 1XI       0.065700
     34 H241         0.0850    25.3990    27.4320 h1         1 1XI       0.054200
     35 H24         -0.5670    26.6330    28.4960 h1         1 1XI       0.054200
     36 H27         -2.9740    26.7200    29.0450 ha         1 1XI       0.118000
     37 H28         -5.0990    25.4420    29.2290 ha         1 1XI       0.110000
     38 H29         -5.3940    23.3170    27.9590 ha         1 1XI       0.111000
     39 H30         -3.5550    22.4710    26.5030 ha         1 1XI       0.110000
     40 H311        -1.4270    23.7460    26.3130 ha         1 1XI       0.118000
     41 H20         -0.1570    31.0740    26.9930 h1         1 1XI       0.085200
     42 H201        -1.7670    31.5480    27.5860 h1         1 1XI       0.085200
     43 HO9         -4.0560    31.6930    26.7610 ho         1 1XI       0.452000
     44 HO8         -5.5100    30.3590    24.5360 ho         1 1XI       0.459000
@<TRIPOS>BOND
     1     1     2 1   
     2     1     5 1   
     3     1    21 1   
     4     1    24 1   
     5     2     3 1   
     6     2    22 1   
     7     2    25 1   
     8     3    10 1   
     9     3    23 1   
    10     3    26 1   
    11     4     8 1   
    12     4    10 1   
    13     4    27 1   
    14     5     6 1   
    15     5    11 1   
    16     6    10 1   
    17     6    28 1   
    18     6    29 1   
    19     7     8 1   
    20     7    30 1   
    21     7    31 1   
    22     7    32 1   
    23     8     9 2   
    24    10    33 1   
    25    11    12 2   
    26    11    20 1   
    27    12    13 1   
    28    13    14 1   
    29    13    34 1   
    30    13    35 1   
    31    14    15 ar  
    32    14    19 ar  
    33    15    16 ar  
    34    15    36 1   
    35    16    17 ar  
    36    16    37 1   
    37    17    18 ar  
    38    17    38 1   
    39    18    19 ar  
    40    18    39 1   
    41    19    40 1   
    42    20    21 1   
    43    21    41 1   
    44    21    42 1   
    45    22    43 1   
    46    23    44 1   
@<TRIPOS>SUBSTRUCTURE
     1 1XI         1 TEMP              0 ****  ****    0 ROOT
