@<TRIPOS>MOLECULE
1XI
   44    46     1     0     0
SMALL
abcg2


@<TRIPOS>ATOM
      1 C5          -1.3770    30.3480    25.4470 c5         1 1XI       0.184500
      2 C6          -2.7940    30.8510    25.1460 c6         1 1XI       0.103300
      3 C7          -3.2860    30.2710    23.8190 c6         1 1XI       0.152300
      4 N1          -3.7460    28.1110    22.6650 ns         1 1XI      -0.495900
      5 N2          -1.3600    28.8970    25.4280 nh         1 1XI      -0.723600
      6 C3          -1.7950    28.2860    24.1910 c6         1 1XI       0.193800
      7 C33         -4.0800    27.5420    20.3550 c3         1 1XI      -0.182100
      8 C32         -3.2730    28.2620    21.4110 c          1 1XI       0.606100
      9 O34         -2.2840    28.9280    21.1420 o          1 1XI      -0.609100
     10 C2          -3.2190    28.7430    23.8550 c6         1 1XI       0.097700
     11 C22         -1.6850    28.3120    26.6260 c2         1 1XI       0.676100
     12 N23         -2.0630    27.1130    26.7470 n2         1 1XI      -0.652900
     13 C24         -2.3140    26.5830    28.0570 c3         1 1XI       0.181100
     14 C26         -2.6840    25.1200    28.0280 ca         1 1XI      -0.074300
     15 C27         -3.0480    24.4920    29.2200 ca         1 1XI      -0.101000
     16 C28         -3.3850    23.1480    29.2430 ca         1 1XI      -0.112500
     17 C29         -3.3660    22.4040    28.0680 ca         1 1XI      -0.112000
     18 C30         -3.0070    23.0210    26.8790 ca         1 1XI      -0.112500
     19 C31         -2.6690    24.3700    26.8590 ca         1 1XI      -0.101000
     20 S21         -1.4850    29.4810    27.9510 ss         1 1XI      -0.396200
     21 C20         -0.8480    30.7470    26.8160 c5         1 1XI       0.060600
     22 O9          -2.8180    32.2560    25.0270 oh         1 1XI      -0.659000
     23 O8          -4.6150    30.6440    23.5620 oh         1 1XI      -0.656000
     24 H5          -0.6980    30.7220    24.6740 h1         1 1XI       0.102700
     25 H6          -3.4700    30.5120    25.9450 h1         1 1XI       0.056700
     26 H7          -2.6150    30.6370    23.0270 h1         1 1XI       0.073700
     27 HN1         -4.5750    27.5530    22.7850 hn         1 1XI       0.319500
     28 H3          -1.7600    27.2040    24.2930 h1         1 1XI       0.087700
     29 H31         -1.0990    28.5760    23.4030 h1         1 1XI       0.087700
     30 H33         -3.5740    27.5940    19.3940 hc         1 1XI       0.061700
     31 H331        -4.2320    26.4950    20.6180 hc         1 1XI       0.061700
     32 H332        -5.0660    27.9980    20.2540 hc         1 1XI       0.061700
     33 H2          -3.8680    28.4030    24.6680 h1         1 1XI       0.065700
     34 H241        -1.4370    26.7000    28.7120 h1         1 1XI       0.054200
     35 H24         -3.1250    27.1300    28.5590 h1         1 1XI       0.054200
     36 H27         -3.0660    25.0650    30.1410 ha         1 1XI       0.118000
     37 H28         -3.6650    22.6800    30.1780 ha         1 1XI       0.110000
     38 H29         -3.6290    21.3540    28.0820 ha         1 1XI       0.111000
     39 H30         -2.9900    22.4510    25.9580 ha         1 1XI       0.110000
     40 H311        -2.3910    24.8430    25.9260 ha         1 1XI       0.118000
     41 H20          0.2410    30.7340    26.8350 h1         1 1XI       0.085200
     42 H201        -1.1880    31.7310    27.1330 h1         1 1XI       0.085200
     43 HO9         -3.0620    32.6430    25.8720 ho         1 1XI       0.452000
     44 HO8         -4.6540    31.6060    23.5620 ho         1 1XI       0.459000
@<TRIPOS>BOND
     1     1     2 1   
     2     1     5 1   
     3     1    21 1   
     4     1    24 1   
     5     2     3 1   
     6     2    22 1   
     7     2    25 1   
     8     3    10 1   
     9     3    23 1   
    10     3    26 1   
    11     4     8 1   
    12     4    10 1   
    13     4    27 1   
    14     5     6 1   
    15     5    11 1   
    16     6    10 1   
    17     6    28 1   
    18     6    29 1   
    19     7     8 1   
    20     7    30 1   
    21     7    31 1   
    22     7    32 1   
    23     8     9 2   
    24    10    33 1   
    25    11    12 2   
    26    11    20 1   
    27    12    13 1   
    28    13    14 1   
    29    13    34 1   
    30    13    35 1   
    31    14    15 ar  
    32    14    19 ar  
    33    15    16 ar  
    34    15    36 1   
    35    16    17 ar  
    36    16    37 1   
    37    17    18 ar  
    38    17    38 1   
    39    18    19 ar  
    40    18    39 1   
    41    19    40 1   
    42    20    21 1   
    43    21    41 1   
    44    21    42 1   
    45    22    43 1   
    46    23    44 1   
@<TRIPOS>SUBSTRUCTURE
     1 1XI         1 TEMP              0 ****  ****    0 ROOT
