@<TRIPOS>MOLECULE
1XJ
  120   126     1     0     0
SMALL
No Charge or Current Charge


@<TRIPOS>ATOM
      1 C4           6.2080     2.3170    -1.2820 ca         1 1XJ      -0.083000
      2 C5           8.4320     1.5010    -1.8430 ca         1 1XJ      -0.083000
      3 C6           0.8430    -2.8200     2.0830 ca         1 1XJ      -0.015500
      4 C7           1.1970    -3.5300    -0.2120 ca         1 1XJ      -0.015500
      5 C8           2.1270    -2.2550     2.1020 ca         1 1XJ      -0.203000
      6 C10         -4.6420    -1.7260    -1.7770 ca         1 1XJ      -0.240000
      7 C13         -3.9910    -2.9630    -1.7800 ca         1 1XJ       0.083000
      8 C15          7.9580     1.0760    -3.0980 ca         1 1XJ      -0.110500
      9 C17          7.5580     2.1210    -0.9300 ca         1 1XJ      -0.049800
     10 C20         -5.2190    -1.2160    -0.6060 ca         1 1XJ       0.506000
     11 C21         -9.0310     3.1610    -2.1320 ca         1 1XJ      -0.091000
     12 C22         -3.9290    -3.7070    -0.5940 ca         1 1XJ      -0.385500
     13 C24          6.6090     1.2700    -3.4400 ca         1 1XJ       0.120000
     14 C26          8.3630     1.6500     1.3860 c2         1 1XJ      -0.112400
     15 C28          8.1740     4.0620     0.6120 c6         1 1XJ      -0.034200
     16 C1         -10.9100     5.2650    -2.0360 ca         1 1XJ      -0.111000
     17 C2          -9.6280     5.4400    -1.4870 ca         1 1XJ      -0.095000
     18 C3         -11.2540     4.0410    -2.6320 ca         1 1XJ      -0.095000
     19 C9           2.4800    -2.9580    -0.1820 ca         1 1XJ      -0.203000
     20 C11         -8.6900     4.3930    -1.5340 ca         1 1XJ      -0.109000
     21 C12        -10.3170     2.9940    -2.6790 ca         1 1XJ      -0.109000
     22 C14          5.7340     1.8900    -2.5350 ca         1 1XJ      -0.110500
     23 C16         -4.5460    -3.2330     0.5740 ca         1 1XJ       0.163000
     24 C18          0.3580    -3.4690     0.9260 ca         1 1XJ      -0.221600
     25 C19          2.9590    -2.3150     0.9740 ca         1 1XJ       0.364000
     26 C23         -5.1990    -1.9850     0.5670 ca         1 1XJ      -0.414500
     27 C25          8.0480     2.5460     0.4100 ce         1 1XJ      -0.045400
     28 C29          8.8360     2.0910     2.7760 c6         1 1XJ      -0.031200
     29 C30          8.3550     4.4690     2.0930 c6         1 1XJ      -0.065400
     30 C31          4.3730    -0.2730     1.3990 c6         1 1XJ       0.209300
     31 C32          5.3300    -2.1660     0.0890 c6         1 1XJ       0.209300
     32 C33          5.8150     0.0970     1.8730 c6         1 1XJ       0.157800
     33 C34          6.7550    -1.7520     0.5820 c6         1 1XJ       0.157800
     34 C35         -0.8940     2.5050    -1.1410 c6         1 1XJ       0.125800
     35 C36         -0.3900     0.2450    -0.3100 c6         1 1XJ       0.125800
     36 C37          0.4770     2.9860    -0.5750 c6         1 1XJ       0.153100
     37 C38          0.9710     0.7720     0.2290 c6         1 1XJ       0.153100
     38 C39          9.3650     3.5530     2.8360 c6         1 1XJ      -0.045000
     39 C40         10.7930     3.6460     2.2060 c3         1 1XJ      -0.083600
     40 C41          9.4940     4.0090     4.3210 c3         1 1XJ      -0.083600
     41 C43         -3.9230     1.7740    -0.7800 c3         1 1XJ      -0.096400
     42 C44         -2.7190     0.8050    -0.8940 c3         1 1XJ       0.169800
     43 C45         -6.3380     2.3390    -1.3840 c3         1 1XJ       0.016600
     44 C46         -5.2510     1.2380    -1.3790 c3         1 1XJ       0.248500
     45 C47         -4.5130    -0.6340     3.0100 c3         1 1XJ       0.137000
     46 N48          4.2390    -1.7170     1.0140 nh         1 1XJ      -0.800400
     47 N52         -1.4370    -4.7060    -0.1810 ns         1 1XJ      -0.588300
     48 N49          6.8580    -0.2940     0.8780 n3         1 1XJ      -0.724600
     49 N50         -1.4260     1.3240    -0.3860 n3         1 1XJ      -0.713600
     50 O53         -1.7700    -3.9260     1.9090 o          1 1XJ      -0.570100
     51 O54         -6.9110    -0.3800     1.8320 o          1 1XJ      -0.476500
     52 O55         -6.2980    -2.6230     2.8830 o          1 1XJ      -0.476500
     53 O58          1.4270     1.8950    -0.5610 os         1 1XJ      -0.448000
     54 F59         -4.0210     0.4220     2.3220 f          1 1XJ      -0.099000
     55 F60         -3.4940    -1.5050     3.2030 f          1 1XJ      -0.099000
     56 F61         -4.8990    -0.1820     4.2280 f          1 1XJ      -0.099000
     57 S63         -5.9170    -1.4260     2.1190 sy         1 1XJ       1.024500
     58 S64         -2.9820    -5.2230    -0.5480 sy         1 1XJ       1.202300
     59 Cl6          6.0160     0.7320    -5.0060 cl         1 1XJ      -0.210000
     60 H1           5.5260     2.7850    -0.5760 ha         1 1XJ       0.122000
     61 H2           9.4740     1.3440    -1.5770 ha         1 1XJ       0.122000
     62 H3           0.2260    -2.7530     2.9770 ha         1 1XJ       0.121000
     63 H4           0.8710    -4.0090    -1.1320 ha         1 1XJ       0.121000
     64 H5           2.4800    -1.7740     3.0090 ha         1 1XJ       0.118000
     65 H6          -4.6740    -1.1540    -2.6970 ha         1 1XJ       0.123000
     66 H7          -3.5180    -3.3190    -2.6950 ha         1 1XJ       0.132000
     67 H8           8.6330     0.5940    -3.8000 ha         1 1XJ       0.127500
     68 H9           9.0260     4.4280     0.0220 hc         1 1XJ       0.052200
     69 H10          7.2900     4.5710     0.2040 hc         1 1XJ       0.052200
     70 H11        -11.6340     6.0760    -1.9980 ha         1 1XJ       0.117000
     71 H12         -9.3610     6.3880    -1.0250 ha         1 1XJ       0.115000
     72 H13        -12.2460     3.9030    -3.0570 ha         1 1XJ       0.115000
     73 H14          3.0930    -3.0070    -1.0760 ha         1 1XJ       0.118000
     74 H15         -7.7080     4.5600    -1.1020 ha         1 1XJ       0.116500
     75 H16        -10.5910     2.0490    -3.1420 ha         1 1XJ       0.116500
     76 H17          4.6900     2.0350    -2.8000 ha         1 1XJ       0.127500
     77 H18         -4.4870    -3.8200     1.4940 ha         1 1XJ       0.174000
     78 H19          7.9920     1.9770     3.4710 hc         1 1XJ       0.046200
     79 H20          9.6170     1.4100     3.1420 hc         1 1XJ       0.046200
     80 H21          8.6720     5.5200     2.1500 hc         1 1XJ       0.042700
     81 H22          7.3780     4.4170     2.5960 hc         1 1XJ       0.042700
     82 H23          3.6710    -0.0130     2.2030 h1         1 1XJ       0.048950
     83 H24          4.1220     0.3600     0.5350 h1         1 1XJ       0.048950
     84 H25          5.1690    -1.7330    -0.9100 h1         1 1XJ       0.048950
     85 H26          5.3100    -3.2610    -0.0200 h1         1 1XJ       0.048950
     86 H27          5.8420     1.1800     2.0590 h1         1 1XJ       0.044200
     87 H28          6.0060    -0.3980     2.8370 h1         1 1XJ       0.044200
     88 H29          6.9970    -2.3370     1.4810 h1         1 1XJ       0.044200
     89 H30          7.4850    -2.0360    -0.1910 h1         1 1XJ       0.044200
     90 H31         -1.5930     3.3510    -1.0900 h1         1 1XJ       0.041200
     91 H32         -0.7670     2.2530    -2.2040 h1         1 1XJ       0.041200
     92 H33         -0.2240    -0.1930    -1.3060 h1         1 1XJ       0.041200
     93 H34         -0.7340    -0.5700     0.3440 h1         1 1XJ       0.041200
     94 H35          0.8730     3.8000    -1.1970 h1         1 1XJ       0.052200
     95 H36          0.3470     3.3680     0.4480 h1         1 1XJ       0.052200
     96 H37          0.8670     1.0820     1.2790 h1         1 1XJ       0.052200
     97 H38          1.7220    -0.0270     0.1790 h1         1 1XJ       0.052200
     98 H39         10.8160     3.2650     1.1780 hc         1 1XJ       0.034533
     99 H40         11.1520     4.6820     2.1830 hc         1 1XJ       0.034533
    100 H41         11.5200     3.0580     2.7790 hc         1 1XJ       0.034533
    101 H42         10.1770     3.3600     4.8820 hc         1 1XJ       0.034533
    102 H43          9.8770     5.0340     4.3940 hc         1 1XJ       0.034533
    103 H44          8.5250     3.9850     4.8330 hc         1 1XJ       0.034533
    104 H45          8.9330    -0.1970     0.4660 h1         1 1XJ       0.040700
    105 H46          8.5320    -0.3610     2.1720 h1         1 1XJ       0.040700
    106 H47         -4.0740     2.0450     0.2700 hc         1 1XJ       0.063200
    107 H48         -3.6770     2.7010    -1.3090 hc         1 1XJ       0.063200
    108 H49         -2.9600    -0.0990    -0.3220 h1         1 1XJ       0.035700
    109 H50         -2.6090     0.5020    -1.9440 h1         1 1XJ       0.035700
    110 H51         -6.5740     2.6280    -0.3520 h1         1 1XJ       0.078700
    111 H52         -5.9560     3.2200    -1.9140 h1         1 1XJ       0.078700
    112 H53         -5.0700     0.9730    -2.4300 h1         1 1XJ       0.076700
    113 H54         -6.4140     0.2540     0.1210 hn         1 1XJ       0.527000
    114 H55         -0.8260    -4.7740    -0.9730 hn         1 1XJ       0.344500
    115 C42          8.2280     0.1350     1.2400 c3         1 1XJ       0.213000
    116 C27         -1.0370    -4.0530     0.9420 c          1 1XJ       0.658700
    117 N51         -5.7540     0.0630    -0.6350 nu         1 1XJ      -0.943200
    118 O56         -3.4430    -6.0350     0.5830 o          1 1XJ      -0.529500
    119 O57         -2.8930    -5.7700    -1.9050 o          1 1XJ      -0.529500
    120 S62         -7.8880     1.7770    -2.2300 ss         1 1XJ      -0.155000
@<TRIPOS>BOND
     1     1     9 ar  
     2     1    22 ar  
     3     1    60 1   
     4     2     8 ar  
     5     2     9 ar  
     6     2    61 1   
     7     3     5 ar  
     8     3    24 ar  
     9     3    62 1   
    10     4    19 ar  
    11     4    24 ar  
    12     4    63 1   
    13     5    25 ar  
    14     5    64 1   
    15     6     7 ar  
    16     6    10 ar  
    17     6    65 1   
    18     7    12 ar  
    19     7    66 1   
    20     8    13 ar  
    21     8    67 1   
    22     9    27 1   
    23    10    26 ar  
    24    10   117 1   
    25    11    20 ar  
    26    11    21 ar  
    27    11   120 1   
    28    12    23 ar  
    29    12    58 1   
    30    13    22 ar  
    31    13    59 1   
    32    14    27 2   
    33    14    28 1   
    34    14   115 1   
    35    15    27 1   
    36    15    29 1   
    37    15    68 1   
    38    15    69 1   
    39    16    17 ar  
    40    16    18 ar  
    41    16    70 1   
    42    17    20 ar  
    43    17    71 1   
    44    18    21 ar  
    45    18    72 1   
    46    19    25 ar  
    47    19    73 1   
    48    20    74 1   
    49    21    75 1   
    50    22    76 1   
    51    23    26 ar  
    52    23    77 1   
    53    24   116 1   
    54    25    46 1   
    55    26    57 1   
    56    28    38 1   
    57    28    78 1   
    58    28    79 1   
    59    29    38 1   
    60    29    80 1   
    61    29    81 1   
    62    30    32 1   
    63    30    46 1   
    64    30    82 1   
    65    30    83 1   
    66    31    33 1   
    67    31    46 1   
    68    31    84 1   
    69    31    85 1   
    70    32    48 1   
    71    32    86 1   
    72    32    87 1   
    73    33    48 1   
    74    33    88 1   
    75    33    89 1   
    76    34    36 1   
    77    34    49 1   
    78    34    90 1   
    79    34    91 1   
    80    35    37 1   
    81    35    49 1   
    82    35    92 1   
    83    35    93 1   
    84    36    53 1   
    85    36    94 1   
    86    36    95 1   
    87    37    53 1   
    88    37    96 1   
    89    37    97 1   
    90    38    39 1   
    91    38    40 1   
    92    39    98 1   
    93    39    99 1   
    94    39   100 1   
    95    40   101 1   
    96    40   102 1   
    97    40   103 1   
    98    41    42 1   
    99    41    44 1   
   100    41   106 1   
   101    41   107 1   
   102    42    49 1   
   103    42   108 1   
   104    42   109 1   
   105    43    44 1   
   106    43   110 1   
   107    43   111 1   
   108    43   120 1   
   109    44   112 1   
   110    44   117 1   
   111    45    54 1   
   112    45    55 1   
   113    45    56 1   
   114    45    57 1   
   115    47    58 1   
   116    47   114 1   
   117    47   116 1   
   118    48   115 1   
   119    50   116 2   
   120    51    57 2   
   121    52    57 2   
   122    58   118 2   
   123    58   119 2   
   124   104   115 1   
   125   105   115 1   
   126   113   117 1   
@<TRIPOS>SUBSTRUCTURE
     1 1XJ         1 TEMP              0 ****  ****    0 ROOT
