@<TRIPOS>MOLECULE
1XJ
  120   126     1     0     0
SMALL
bcc


@<TRIPOS>ATOM
      1 C4           8.0820     1.1650    -1.4480 ca         1 1XJ      -0.101000
      2 C5          10.4620     1.0460    -1.6610 ca         1 1XJ      -0.101000
      3 C6           1.1560    -1.9380     1.7180 ca         1 1XJ      -0.033500
      4 C7           1.5670    -3.2150    -0.2530 ca         1 1XJ      -0.033500
      5 C8           2.4750    -1.5480     1.7530 ca         1 1XJ      -0.221000
      6 C10         -4.6860    -0.9360    -1.4510 ca         1 1XJ      -0.258000
      7 C13         -3.9500    -2.0870    -1.5060 ca         1 1XJ       0.065000
      8 C15         10.3410     0.7700    -3.0150 ca         1 1XJ      -0.128500
      9 C17          9.3410     1.2380    -0.8560 ca         1 1XJ      -0.049800
     10 C20         -5.3270    -0.5100    -0.2610 ca         1 1XJ       0.367600
     11 C21        -10.3370     1.1290    -1.7910 ca         1 1XJ       0.035900
     12 C22         -3.8030    -2.8930    -0.3720 ca         1 1XJ      -0.385500
     13 C24          9.0750     0.6960    -3.5730 ca         1 1XJ       0.028400
     14 C26          9.3280     0.6300     1.5390 c2         1 1XJ      -0.112400
     15 C28          9.9380     2.9610     0.8880 c6         1 1XJ      -0.034200
     16 C1         -13.0070     1.9140    -2.0490 ca         1 1XJ      -0.129000
     17 C2         -12.0130     2.8590    -1.8450 ca         1 1XJ      -0.113000
     18 C3         -12.6600     0.5700    -2.1240 ca         1 1XJ      -0.113000
     19 C9           2.8940    -2.8370    -0.2270 ca         1 1XJ      -0.221000
     20 C11        -10.6830     2.4760    -1.7160 ca         1 1XJ      -0.127000
     21 C12        -11.3380     0.1760    -1.9950 ca         1 1XJ      -0.127000
     22 C14          7.9410     0.8960    -2.8010 ca         1 1XJ      -0.128500
     23 C16         -4.3930    -2.5240     0.8130 ca         1 1XJ       0.145000
     24 C18          0.6640    -2.7780     0.7150 ca         1 1XJ      -0.221600
     25 C19          3.4000    -1.9970     0.7850 ca         1 1XJ       0.225600
     26 C23         -5.1400    -1.3510     0.8770 ca         1 1XJ      -0.414500
     27 C25          9.5110     1.5500     0.5860 ce         1 1XJ      -0.045400
     28 C29          9.5970     0.9200     2.9910 c6         1 1XJ      -0.031200
     29 C30          9.8430     3.3020     2.3680 c6         1 1XJ      -0.065400
     30 C31          5.1340    -0.3850     1.4260 c6         1 1XJ       0.209300
     31 C32          5.6520    -2.1280    -0.1650 c6         1 1XJ       0.209300
     32 C33          6.5670    -0.4310     1.9150 c6         1 1XJ       0.157800
     33 C34          7.0760    -2.1310     0.3590 c6         1 1XJ       0.157800
     34 C35         -3.0540     4.6360    -1.9060 c6         1 1XJ       0.125800
     35 C36         -1.6610     3.2660    -0.5580 c6         1 1XJ       0.125800
     36 C37         -2.1800     5.8240    -1.5530 c6         1 1XJ       0.129900
     37 C38         -0.8210     4.4860    -0.2310 c6         1 1XJ       0.129900
     38 C39         10.4110     2.1920     3.2530 c6         1 1XJ      -0.045000
     39 C40         11.8860     1.9460     2.9340 c3         1 1XJ      -0.083600
     40 C41         10.2740     2.5800     4.7230 c3         1 1XJ      -0.083600
     41 C43         -5.3550     2.8260    -1.0320 c3         1 1XJ      -0.096400
     42 C44         -3.8680     2.5060    -1.1080 c3         1 1XJ       0.169800
     43 C45         -7.7020     1.9980    -1.3400 c3         1 1XJ      -0.031300
     44 C46         -6.2320     1.5970    -1.2740 c3         1 1XJ       0.248500
     45 C47         -4.4070     0.1170     3.1560 c3         1 1XJ       0.611700
     46 N48          4.7260    -1.6570     0.8490 nh         1 1XJ      -0.662000
     47 N52         -1.2520    -3.8140    -0.3490 ns         1 1XJ      -0.655300
     48 N49          7.4530    -0.8280     0.8490 n3         1 1XJ      -0.724600
     49 N50         -3.0320     3.6580    -0.8320 n3         1 1XJ      -0.713600
     50 O53         -1.4780    -2.9330     1.7120 o          1 1XJ      -0.570100
     51 O54         -6.9220    -0.0870     2.3780 o          1 1XJ      -0.547300
     52 O55         -5.7760    -2.1270     3.3160 o          1 1XJ      -0.547300
     53 O58         -0.8540     5.4340    -1.2740 os         1 1XJ      -0.401600
     54 F59         -4.2260     1.1670     2.3700 f          1 1XJ      -0.220300
     55 F60         -3.2840    -0.5740     3.2310 f          1 1XJ      -0.220300
     56 F61         -4.7640     0.5220     4.3610 f          1 1XJ      -0.220300
     57 S63         -5.7540    -0.9530     2.4660 sy         1 1XJ       1.055300
     58 S64         -2.8340    -4.3490    -0.4610 sy         1 1XJ       1.343900
     59 CL6          8.9060     0.3540    -5.2670 cl         1 1XJ      -0.118400
     60 H1           7.1990     1.3080    -0.8420 ha         1 1XJ       0.140000
     61 H2          11.4530     1.1020    -1.2250 ha         1 1XJ       0.140000
     62 H3           0.4910    -1.5770     2.4910 ha         1 1XJ       0.139000
     63 H4           1.2650    -3.8700    -1.0600 ha         1 1XJ       0.139000
     64 H5           2.7850    -0.9060     2.5640 ha         1 1XJ       0.136000
     65 H6          -4.7760    -0.3530    -2.3540 ha         1 1XJ       0.141000
     66 H7          -3.4910    -2.3640    -2.4460 ha         1 1XJ       0.150000
     67 H8          11.2220     0.6130    -3.6230 ha         1 1XJ       0.145500
     68 H9          10.9580     3.1170     0.5170 hc         1 1XJ       0.052200
     69 H10          9.3170     3.6520     0.3100 hc         1 1XJ       0.052200
     70 H11        -14.0400     2.2180    -2.1480 ha         1 1XJ       0.135000
     71 H12        -12.2640     3.9100    -1.7840 ha         1 1XJ       0.133000
     72 H13        -13.4230    -0.1810    -2.2830 ha         1 1XJ       0.133000
     73 H14          3.5290    -3.2020    -1.0200 ha         1 1XJ       0.136000
     74 H15         -9.9320     3.2380    -1.5640 ha         1 1XJ       0.134500
     75 H16        -11.0850    -0.8760    -2.0520 ha         1 1XJ       0.134500
     76 H17          6.9560     0.8400    -3.2460 ha         1 1XJ       0.145500
     77 H18         -4.2820    -3.1440     1.6910 ha         1 1XJ       0.192000
     78 H19          8.6440     0.9800     3.5330 hc         1 1XJ       0.046200
     79 H20         10.1170     0.0610     3.4310 hc         1 1XJ       0.046200
     80 H21         10.3570     4.2470     2.5660 hc         1 1XJ       0.042700
     81 H22          8.7920     3.4580     2.6340 hc         1 1XJ       0.042700
     82 H23          4.5010    -0.1200     2.2680 h1         1 1XJ       0.048950
     83 H24          5.0320     0.4120     0.6760 h1         1 1XJ       0.048950
     84 H25          5.5960    -1.5040    -1.0670 h1         1 1XJ       0.048950
     85 H26          5.4070    -3.1500    -0.4490 h1         1 1XJ       0.048950
     86 H27          6.8290     0.5710     2.2610 h1         1 1XJ       0.044200
     87 H28          6.6330    -1.1080     2.7860 h1         1 1XJ       0.044200
     88 H29          7.1770    -2.9100     1.1350 h1         1 1XJ       0.044200
     89 H30          7.7370    -2.4120    -0.4650 h1         1 1XJ       0.044200
     90 H31         -4.0710     5.0000    -2.0650 h1         1 1XJ       0.041200
     91 H32         -2.7150     4.1960    -2.8600 h1         1 1XJ       0.041200
     92 H33         -1.2090     2.7290    -1.4100 h1         1 1XJ       0.041200
     93 H34         -1.6400     2.5880     0.2980 h1         1 1XJ       0.041200
     94 H35         -2.1470     6.5220    -2.3910 h1         1 1XJ       0.052200
     95 H36         -2.6160     6.3510    -0.6920 h1         1 1XJ       0.052200
     96 H37         -1.1800     4.9330     0.7070 h1         1 1XJ       0.052200
     97 H38          0.2200     4.1940    -0.0870 h1         1 1XJ       0.052200
     98 H39         12.0370     1.5930     1.9130 hc         1 1XJ       0.034533
     99 H40         12.4720     2.8590     3.0580 hc         1 1XJ       0.034533
    100 H41         12.3030     1.1900     3.6030 hc         1 1XJ       0.034533
    101 H42         10.6030     1.7700     5.3780 hc         1 1XJ       0.034533
    102 H43         10.8760     3.4600     4.9600 hc         1 1XJ       0.034533
    103 H44          9.2350     2.8090     4.9730 hc         1 1XJ       0.034533
    104 H45          9.4250    -1.1470     0.3460 h1         1 1XJ       0.040700
    105 H46          9.0900    -1.4400     2.0470 h1         1 1XJ       0.040700
    106 H47         -5.5880     3.2510    -0.0520 hc         1 1XJ       0.063200
    107 H48         -5.6250     3.5770    -1.7790 hc         1 1XJ       0.063200
    108 H49         -3.6290     1.7440    -0.3630 h1         1 1XJ       0.035700
    109 H50         -3.6310     2.0650    -2.0920 h1         1 1XJ       0.035700
    110 H51         -8.0140     2.4730    -0.4060 h1         1 1XJ       0.078700
    111 H52         -7.8370     2.7130    -2.1510 h1         1 1XJ       0.078700
    112 H53         -5.9690     1.1570    -2.2360 h1         1 1XJ       0.076700
    113 H54         -6.5530     0.8170     0.6340 hn         1 1XJ       0.471800
    114 H55         -0.7190    -3.8870    -1.2050 hn         1 1XJ       0.344500
    115 C42          8.8600    -0.7670     1.2030 c3         1 1XJ       0.213000
    116 C27         -0.7550    -3.1640     0.7630 c          1 1XJ       0.725700
    117 N51         -6.0610     0.6080    -0.2230 nu         1 1XJ      -0.749600
    118 O56         -3.1340    -5.1870     0.6800 o          1 1XJ      -0.600300
    119 O57         -2.9140    -4.8880    -1.8060 o          1 1XJ      -0.600300
    120 S62         -8.6940     0.5120    -1.6410 ss         1 1XJ      -0.234000
@<TRIPOS>BOND
     1     1     9 ar  
     2     1    22 ar  
     3     1    60 1   
     4     2     8 ar  
     5     2     9 ar  
     6     2    61 1   
     7     3     5 ar  
     8     3    24 ar  
     9     3    62 1   
    10     4    19 ar  
    11     4    24 ar  
    12     4    63 1   
    13     5    25 ar  
    14     5    64 1   
    15     6     7 ar  
    16     6    10 ar  
    17     6    65 1   
    18     7    12 ar  
    19     7    66 1   
    20     8    13 ar  
    21     8    67 1   
    22     9    27 1   
    23    10    26 ar  
    24    10   117 1   
    25    11    20 ar  
    26    11    21 ar  
    27    11   120 1   
    28    12    23 ar  
    29    12    58 1   
    30    13    22 ar  
    31    13    59 1   
    32    14    27 2   
    33    14    28 1   
    34    14   115 1   
    35    15    27 1   
    36    15    29 1   
    37    15    68 1   
    38    15    69 1   
    39    16    17 ar  
    40    16    18 ar  
    41    16    70 1   
    42    17    20 ar  
    43    17    71 1   
    44    18    21 ar  
    45    18    72 1   
    46    19    25 ar  
    47    19    73 1   
    48    20    74 1   
    49    21    75 1   
    50    22    76 1   
    51    23    26 ar  
    52    23    77 1   
    53    24   116 1   
    54    25    46 1   
    55    26    57 1   
    56    28    38 1   
    57    28    78 1   
    58    28    79 1   
    59    29    38 1   
    60    29    80 1   
    61    29    81 1   
    62    30    32 1   
    63    30    46 1   
    64    30    82 1   
    65    30    83 1   
    66    31    33 1   
    67    31    46 1   
    68    31    84 1   
    69    31    85 1   
    70    32    48 1   
    71    32    86 1   
    72    32    87 1   
    73    33    48 1   
    74    33    88 1   
    75    33    89 1   
    76    34    36 1   
    77    34    49 1   
    78    34    90 1   
    79    34    91 1   
    80    35    37 1   
    81    35    49 1   
    82    35    92 1   
    83    35    93 1   
    84    36    53 1   
    85    36    94 1   
    86    36    95 1   
    87    37    53 1   
    88    37    96 1   
    89    37    97 1   
    90    38    39 1   
    91    38    40 1   
    92    39    98 1   
    93    39    99 1   
    94    39   100 1   
    95    40   101 1   
    96    40   102 1   
    97    40   103 1   
    98    41    42 1   
    99    41    44 1   
   100    41   106 1   
   101    41   107 1   
   102    42    49 1   
   103    42   108 1   
   104    42   109 1   
   105    43    44 1   
   106    43   110 1   
   107    43   111 1   
   108    43   120 1   
   109    44   112 1   
   110    44   117 1   
   111    45    54 1   
   112    45    55 1   
   113    45    56 1   
   114    45    57 1   
   115    47    58 1   
   116    47   114 1   
   117    47   116 1   
   118    48   115 1   
   119    50   116 2   
   120    51    57 2   
   121    52    57 2   
   122    58   118 2   
   123    58   119 2   
   124   104   115 1   
   125   105   115 1   
   126   113   117 1   
@<TRIPOS>SUBSTRUCTURE
     1 1XJ         1 TEMP              0 ****  ****    0 ROOT
