@<TRIPOS>MOLECULE
1XK
   63    67     1     0     0
SMALL
abcg2


@<TRIPOS>ATOM
      1 C4          25.3150   -19.6050    -8.4050 ca         1 1XK      -0.172000
      2 C           28.1010   -21.5540   -10.9310 c3         1 1XK      -0.146400
      3 N           27.4320   -20.6760    -8.7670 nb         1 1XK      -0.705000
      4 C3          24.9690   -19.7700    -9.7540 ca         1 1XK       0.026000
      5 C2          25.8940   -20.4120   -10.5810 ca         1 1XK      -0.181000
      6 C1          27.1060   -20.8540   -10.0500 ca         1 1XK       0.377300
      7 C10         29.8110   -23.5260    -3.6670 ca         1 1XK       0.166000
      8 C11         28.7510   -23.9120    -2.8730 ca         1 1XK      -0.149000
      9 C12         27.6670   -23.0360    -2.7190 ca         1 1XK       0.047000
     10 C13         27.7060   -21.8040    -3.3840 ca         1 1XK      -0.104000
     11 C14         26.5260   -23.3950    -1.8770 cc         1 1XK      -0.168000
     12 C15         25.2810   -22.7340    -1.7600 cc         1 1XK       0.265900
     13 C17         26.4120   -24.4670    -0.9990 cd         1 1XK      -0.142000
     14 C18         22.8750   -18.4760    -9.3400 c5         1 1XK       0.094000
     15 C19         21.8190   -17.9190   -10.2940 c5         1 1XK      -0.095400
     16 C20         21.7390   -18.9520   -11.4280 c5         1 1XK      -0.093000
     17 C21         20.7260   -20.0330   -11.0050 c3         1 1XK       0.174600
     18 C22         21.3820   -18.4170   -12.8010 cx         1 1XK      -0.103700
     19 C23         21.9300   -17.1250   -13.3340 cx         1 1XK      -0.129900
     20 C24         20.4710   -17.2340   -12.9660 cx         1 1XK      -0.129900
     21 C25         23.1510   -19.5510   -11.4300 c          1 1XK       0.581000
     22 C5          26.5440   -20.0640    -7.9740 ca         1 1XK       0.314500
     23 C6          26.9310   -19.8600    -6.5280 c          1 1XK       0.507600
     24 C7          28.7840   -20.1200    -4.9180 c3         1 1XK       0.150300
     25 C8          28.7850   -21.4430    -4.1850 ca         1 1XK      -0.084300
     26 C9          29.8620   -22.3160    -4.3310 ca         1 1XK      -0.146000
     27 N2          24.4800   -23.3460    -0.8920 nd         1 1XK      -0.525800
     28 N3          25.1890   -24.4000    -0.4390 na         1 1XK       0.120800
     29 N4          23.7420   -19.2850   -10.2100 n          1 1XK      -0.236400
     30 O1          20.7200   -21.1050   -11.9410 oh         1 1XK      -0.652000
     31 H1          24.6590   -19.1320    -7.6930 ha         1 1XK       0.146000
     32 H2          28.9960   -21.8040   -10.3660 hc         1 1XK       0.054367
     33 H3          27.6740   -22.4730   -11.3390 hc         1 1XK       0.054367
     34 H4          28.3800   -20.9230   -11.7780 hc         1 1XK       0.054367
     35 H5          28.7210   -20.6310    -6.9980 hn         1 1XK       0.345500
     36 H6          25.6800   -20.5640   -11.6240 ha         1 1XK       0.159000
     37 H7          28.7760   -24.8780    -2.3890 ha         1 1XK       0.126000
     38 H8          26.8870   -21.1070    -3.2690 ha         1 1XK       0.130000
     39 H9          24.9380   -21.8520    -2.2760 h4         1 1XK       0.045100
     40 H10         24.4080   -24.7440     1.4700 h1         1 1XK       0.057367
     41 H11         23.6990   -25.7310     0.1710 h1         1 1XK       0.057367
     42 H12         25.3390   -26.0810     0.7600 h1         1 1XK       0.057367
     43 H13         27.1020   -25.2510    -0.7370 h4         1 1XK       0.154000
     44 H14         23.4560   -17.6860    -8.8680 h1         1 1XK       0.059200
     45 H15         22.4420   -19.1000    -8.5560 h1         1 1XK       0.059200
     46 H16         22.1500   -16.9550   -10.6760 hc         1 1XK       0.065700
     47 H17         20.8630   -17.7750    -9.7950 hc         1 1XK       0.065700
     48 H18         19.7420   -19.5540   -10.9580 h1         1 1XK       0.028200
     49 H19         20.9740   -20.4020   -10.0040 h1         1 1XK       0.028200
     50 H20         21.2660   -19.2040   -13.5330 hc         1 1XK       0.110700
     51 H21         22.1930   -17.0910   -14.3830 hc         1 1XK       0.072700
     52 H22         22.5660   -16.5260   -12.6960 hc         1 1XK       0.072700
     53 H23         20.1430   -16.7180   -12.0740 hc         1 1XK       0.072700
     54 H24         19.7380   -17.2630   -13.7620 hc         1 1XK       0.072700
     55 H25         29.8060   -19.7590    -5.0340 h1         1 1XK       0.065700
     56 H26         28.2170   -19.3800    -4.3570 h1         1 1XK       0.065700
     57 H27         30.7200   -22.0620    -4.9400 ha         1 1XK       0.129000
     58 H28         20.0580   -21.7470   -11.6550 ho         1 1XK       0.447000
     59 O2          23.6620   -20.1600   -12.3520 o          1 1XK      -0.498000
     60 N1          28.1910   -20.2180    -6.2420 ns         1 1XK      -0.485900
     61 O           26.1400   -19.3840    -5.7110 o          1 1XK      -0.621100
     62 F           30.8600   -24.3810    -3.8010 f          1 1XK      -0.188000
     63 C16         24.6200   -25.2930     0.5530 c3         1 1XK       0.076900
@<TRIPOS>BOND
     1     1     4 ar  
     2     1    22 ar  
     3     1    31 1   
     4     2     6 1   
     5     2    32 1   
     6     2    33 1   
     7     2    34 1   
     8     3     6 ar  
     9     3    22 ar  
    10     4     5 ar  
    11     4    29 1   
    12     5     6 ar  
    13     5    36 1   
    14     7     8 ar  
    15     7    26 ar  
    16     7    62 1   
    17     8     9 ar  
    18     8    37 1   
    19     9    10 ar  
    20     9    11 1   
    21    10    25 ar  
    22    10    38 1   
    23    11    12 1   
    24    11    13 2   
    25    12    27 2   
    26    12    39 1   
    27    13    28 1   
    28    13    43 1   
    29    14    15 1   
    30    14    29 1   
    31    14    44 1   
    32    14    45 1   
    33    15    16 1   
    34    15    46 1   
    35    15    47 1   
    36    16    17 1   
    37    16    18 1   
    38    16    21 1   
    39    17    30 1   
    40    17    48 1   
    41    17    49 1   
    42    18    19 1   
    43    18    20 1   
    44    18    50 1   
    45    19    20 1   
    46    19    51 1   
    47    19    52 1   
    48    20    53 1   
    49    20    54 1   
    50    21    29 1   
    51    21    59 2   
    52    22    23 1   
    53    23    60 1   
    54    23    61 2   
    55    24    25 1   
    56    24    55 1   
    57    24    56 1   
    58    24    60 1   
    59    25    26 ar  
    60    26    57 1   
    61    27    28 1   
    62    28    63 1   
    63    30    58 1   
    64    35    60 1   
    65    40    63 1   
    66    41    63 1   
    67    42    63 1   
@<TRIPOS>SUBSTRUCTURE
     1 1XK         1 TEMP              0 ****  ****    0 ROOT
