@<TRIPOS>MOLECULE
1XK
   63    67     1     0     0
SMALL
No Charge or Current Charge


@<TRIPOS>ATOM
      1 C4          25.5310   -19.3260    -8.3140 ca         1 1XK      -0.172000
      2 C           28.4190   -20.8740   -11.0290 c3         1 1XK      -0.146400
      3 N           27.7360   -20.1980    -8.7940 nb         1 1XK      -0.705000
      4 C3          25.1670   -19.3730    -9.6730 ca         1 1XK       0.026000
      5 C2          26.1060   -19.9350   -10.5580 ca         1 1XK      -0.181000
      6 C1          27.3750   -20.3040   -10.0890 ca         1 1XK       0.377300
      7 C10         29.7710   -23.6990    -3.6690 ca         1 1XK       0.166000
      8 C11         28.5910   -24.0220    -2.9850 ca         1 1XK      -0.149000
      9 C12         27.5500   -23.0740    -2.8710 ca         1 1XK       0.047000
     10 C13         27.7280   -21.8030    -3.4580 ca         1 1XK      -0.104000
     11 C14         26.2990   -23.3810    -2.1650 cc         1 1XK      -0.168000
     12 C15         25.1610   -22.5860    -1.9500 cc         1 1XK       0.265900
     13 C17         26.0480   -24.5830    -1.5680 cd         1 1XK      -0.142000
     14 C18         23.0140   -18.0600    -9.3890 c5         1 1XK       0.094000
     15 C19         21.9370   -17.7550   -10.4650 c5         1 1XK      -0.095400
     16 C20         21.6650   -19.1840   -11.0760 c5         1 1XK      -0.093000
     17 C21         20.7230   -20.0050   -10.1430 c3         1 1XK       0.174600
     18 C22         21.0640   -19.1090   -12.5360 cx         1 1XK      -0.103700
     19 C23         21.7840   -18.2300   -13.5390 cx         1 1XK      -0.129900
     20 C24         20.4190   -17.8210   -13.0140 cx         1 1XK      -0.129900
     21 C25         23.0750   -19.8190   -11.0440 c          1 1XK       0.581000
     22 C5          26.8210   -19.7200    -7.9000 ca         1 1XK       0.314500
     23 C6          27.2100   -19.6310    -6.4150 c          1 1XK       0.507600
     24 C7          29.0790   -20.1010    -4.7770 c3         1 1XK       0.150300
     25 C8          28.9140   -21.4760    -4.1460 ca         1 1XK      -0.084300
     26 C9          29.9380   -22.4340    -4.2500 ca         1 1XK      -0.146000
     27 N2          24.2110   -23.1900    -1.2640 nd         1 1XK      -0.525800
     28 N3          24.7650   -24.4410    -1.0250 na         1 1XK       0.120800
     29 N4          23.7970   -19.1230   -10.0500 n          1 1XK      -0.236400
     30 O1          20.5590   -21.3490   -10.6120 oh         1 1XK      -0.652000
     31 H1          24.8200   -18.9860    -7.5660 ha         1 1XK       0.146000
     32 H2          29.4360   -20.6600   -10.6790 hc         1 1XK       0.054367
     33 H3          28.3120   -21.9620   -11.1110 hc         1 1XK       0.054367
     34 H4          28.3200   -20.4490   -12.0340 hc         1 1XK       0.054367
     35 H5          29.0350   -20.3860    -6.9060 hn         1 1XK       0.345500
     36 H6          25.8850   -20.0560   -11.6130 ha         1 1XK       0.159000
     37 H7          28.4990   -25.0110    -2.5500 ha         1 1XK       0.126000
     38 H8          26.9410   -21.0580    -3.3880 ha         1 1XK       0.130000
     39 H9          24.9940   -21.5680    -2.2780 h4         1 1XK       0.045100
     40 H10         23.8000   -25.0830     0.7350 h1         1 1XK       0.057367
     41 H11         23.0830   -25.6890    -0.7900 h1         1 1XK       0.057367
     42 H12         24.6220   -26.3740    -0.1900 h1         1 1XK       0.057367
     43 H13         26.6290   -25.4930    -1.4770 h4         1 1XK       0.154000
     44 H14         23.6250   -17.1780    -9.1600 h1         1 1XK       0.059200
     45 H15         22.5690   -18.4260    -8.4540 h1         1 1XK       0.059200
     46 H16         22.3630   -17.0390   -11.1740 hc         1 1XK       0.065700
     47 H17         21.0430   -17.2870   -10.0360 hc         1 1XK       0.065700
     48 H18         19.7480   -19.5010   -10.1010 h1         1 1XK       0.028200
     49 H19         21.1280   -20.0190    -9.1230 h1         1 1XK       0.028200
     50 H20         20.6630   -20.0350   -12.9450 hc         1 1XK       0.110700
     51 H21         21.8370   -18.5850   -14.5650 hc         1 1XK       0.072700
     52 H22         22.6570   -17.6630   -13.2270 hc         1 1XK       0.072700
     53 H23         20.3590   -16.9540   -12.3620 hc         1 1XK       0.072700
     54 H24         19.5760   -17.9110   -13.6940 hc         1 1XK       0.072700
     55 H25         30.1460   -19.8540    -4.8540 h1         1 1XK       0.065700
     56 H26         28.6110   -19.3380    -4.1400 h1         1 1XK       0.065700
     57 H27         30.8590   -22.2040    -4.7790 ha         1 1XK       0.129000
     58 H28         19.9090   -21.7840   -10.0160 ho         1 1XK       0.447000
     59 O2          23.5160   -20.7130   -11.7570 o          1 1XK      -0.498000
     60 N1          28.4910   -20.0550    -6.1160 ns         1 1XK      -0.485900
     61 O           26.4560   -19.2160    -5.5390 o          1 1XK      -0.621100
     62 F           30.7570   -24.6160    -3.7720 f          1 1XK      -0.188000
     63 C16         24.0220   -25.4600    -0.2700 c3         1 1XK       0.076900
@<TRIPOS>BOND
     1     1     4 ar  
     2     1    22 ar  
     3     1    31 1   
     4     2     6 1   
     5     2    32 1   
     6     2    33 1   
     7     2    34 1   
     8     3     6 ar  
     9     3    22 ar  
    10     4     5 ar  
    11     4    29 1   
    12     5     6 ar  
    13     5    36 1   
    14     7     8 ar  
    15     7    26 ar  
    16     7    62 1   
    17     8     9 ar  
    18     8    37 1   
    19     9    10 ar  
    20     9    11 1   
    21    10    25 ar  
    22    10    38 1   
    23    11    12 1   
    24    11    13 2   
    25    12    27 2   
    26    12    39 1   
    27    13    28 1   
    28    13    43 1   
    29    14    15 1   
    30    14    29 1   
    31    14    44 1   
    32    14    45 1   
    33    15    16 1   
    34    15    46 1   
    35    15    47 1   
    36    16    17 1   
    37    16    18 1   
    38    16    21 1   
    39    17    30 1   
    40    17    48 1   
    41    17    49 1   
    42    18    19 1   
    43    18    20 1   
    44    18    50 1   
    45    19    20 1   
    46    19    51 1   
    47    19    52 1   
    48    20    53 1   
    49    20    54 1   
    50    21    29 1   
    51    21    59 2   
    52    22    23 1   
    53    23    60 1   
    54    23    61 2   
    55    24    25 1   
    56    24    55 1   
    57    24    56 1   
    58    24    60 1   
    59    25    26 ar  
    60    26    57 1   
    61    27    28 1   
    62    28    63 1   
    63    30    58 1   
    64    35    60 1   
    65    40    63 1   
    66    41    63 1   
    67    42    63 1   
@<TRIPOS>SUBSTRUCTURE
     1 1XK         1 TEMP              0 ****  ****    0 ROOT
