@<TRIPOS>MOLECULE
1XL
   39    40     1     0     0
SMALL
No Charge or Current Charge


@<TRIPOS>ATOM
      1 OAD         -6.6340     0.8320    -0.8700 oh         1 1XL      -0.705000
      2 CAJ         -5.7160     0.5560     0.2080 c3         1 1XL       0.130600
      3 CAT         -4.2860     0.3560    -0.3640 c3         1 1XL       0.140300
      4 OAE         -4.0360     1.4520    -1.2610 oh         1 1XL      -0.690000
      5 CAV         -3.1840     0.2890     0.7420 c3         1 1XL       0.114300
      6 OAG         -3.4730    -0.7710     1.6720 oh         1 1XL      -0.716000
      7 CAU         -1.7590     0.0260     0.1680 c3         1 1XL       0.143300
      8 OAF         -1.6830    -1.3550    -0.2500 oh         1 1XL      -0.725000
      9 CAK         -0.6350     0.3180     1.1990 c3         1 1XL       0.017600
     10 N8           0.7090     0.5050     0.5890 na         1 1XL       0.021000
     11 C7           1.2120     1.8000     0.3660 cc         1 1XL      -0.058000
     12 C8A          1.5650    -0.5310     0.2050 cc         1 1XL       0.106000
     13 N1           1.0620    -1.7480     0.3690 nd         1 1XL      -0.493400
     14 C2           1.8130    -2.8920     0.0540 c          1 1XL       0.737400
     15 O2           1.3610    -4.0110     0.2040 o          1 1XL      -0.511000
     16 N3           3.0610    -2.6770    -0.4320 ns         1 1XL      -0.497500
     17 C4           3.6820    -1.4760    -0.6570 c          1 1XL       0.488500
     18 O4           4.8190    -1.4540    -1.1080 o          1 1XL      -0.482000
     19 C4A          2.8670    -0.2610    -0.3110 cc         1 1XL       0.194500
     20 N5           3.3610     0.9560    -0.4900 nd         1 1XL      -0.500000
     21 C6           2.5000     2.0000    -0.1450 cd         1 1XL       0.230300
     22 CAI          3.0330     3.4060    -0.3600 c3         1 1XL       0.137300
     23 OAC          3.0700     4.1680     0.8610 oh         1 1XL      -0.640000
     24 H1          -7.5400     0.8580    -0.4790 ho         1 1XL       0.505000
     25 H2          -5.7100     1.3880     0.9260 h1         1 1XL       0.026200
     26 H3          -6.0220    -0.3500     0.7470 h1         1 1XL       0.026200
     27 H4          -4.2770    -0.5950    -0.9170 h1         1 1XL       0.104700
     28 H5          -4.9380     1.6670    -1.6050 ho         1 1XL       0.491000
     29 H6          -3.1810     1.2560     1.2640 h1         1 1XL       0.062700
     30 H7          -3.0130    -1.5530     1.2740 ho         1 1XL       0.522000
     31 H8          -1.6040     0.6980    -0.6890 h1         1 1XL       0.075700
     32 H9          -0.7250    -1.6160    -0.2020 ho         1 1XL       0.547000
     33 H10         -0.8900     1.2370     1.7400 h1         1 1XL       0.090700
     34 H11         -0.5930    -0.4800     1.9520 h1         1 1XL       0.090700
     35 H12          0.5610     2.6220     0.6290 h4         1 1XL       0.154000
     36 H14          3.5880    -3.5060    -0.6550 hn         1 1XL       0.341500
     37 H15          4.0400     3.3480    -0.7960 h1         1 1XL       0.034700
     38 H16          2.3910     3.9070    -1.0970 h1         1 1XL       0.034700
     39 H17          3.4540     5.0470     0.6420 ho         1 1XL       0.452000
@<TRIPOS>BOND
     1     1     2 1   
     2     1    24 1   
     3     2     3 1   
     4     2    25 1   
     5     2    26 1   
     6     3     4 1   
     7     3     5 1   
     8     3    27 1   
     9     4    28 1   
    10     5     6 1   
    11     5     7 1   
    12     5    29 1   
    13     6    30 1   
    14     7     8 1   
    15     7     9 1   
    16     7    31 1   
    17     8    32 1   
    18     9    10 1   
    19     9    33 1   
    20     9    34 1   
    21    10    11 1   
    22    10    12 1   
    23    11    21 2   
    24    11    35 1   
    25    12    13 2   
    26    12    19 1   
    27    13    14 1   
    28    14    15 2   
    29    14    16 1   
    30    16    17 1   
    31    16    36 1   
    32    17    18 2   
    33    17    19 1   
    34    19    20 2   
    35    20    21 1   
    36    21    22 1   
    37    22    23 1   
    38    22    37 1   
    39    22    38 1   
    40    23    39 1   
@<TRIPOS>SUBSTRUCTURE
     1 1XL         1 TEMP              0 ****  ****    0 ROOT
