@<TRIPOS>MOLECULE
1XL
   39    40     1     0     0
SMALL
bcc


@<TRIPOS>ATOM
      1 OAD         -6.6280     0.2180    -0.7960 oh         1 1XL      -0.582800
      2 CAJ         -5.6430     0.2550     0.2090 c3         1 1XL       0.107400
      3 CAT         -4.2720     0.2820    -0.4510 c3         1 1XL       0.117100
      4 OAE         -4.1220     1.4000    -1.2960 oh         1 1XL      -0.567800
      5 CAV         -3.1560     0.2300     0.6070 c3         1 1XL       0.091100
      6 OAG         -3.2670    -0.9160     1.4190 oh         1 1XL      -0.593800
      7 CAU         -1.7610     0.3220    -0.0260 c3         1 1XL       0.120100
      8 OAF         -1.5140    -0.7870    -0.8570 oh         1 1XL      -0.602800
      9 CAK         -0.7250     0.4700     1.0850 c3         1 1XL      -0.011700
     10 N8           0.6380     0.6210     0.5580 na         1 1XL      -0.051100
     11 C7           1.1360     1.8530     0.3620 cc         1 1XL      -0.090600
     12 C8A          1.3910    -0.4830     0.2820 cc         1 1XL       0.091400
     13 N1           0.8580    -1.6690     0.4220 nd         1 1XL      -0.493400
     14 C2           1.6260    -2.7660     0.1900 c          1 1XL       0.879900
     15 O2           1.2030    -3.9000     0.2970 o          1 1XL      -0.586500
     16 N3           2.9570    -2.5720    -0.1850 ns         1 1XL      -0.631500
     17 C4           3.5940    -1.3830    -0.3910 c          1 1XL       0.631000
     18 O4           4.7500    -1.3000    -0.7400 o          1 1XL      -0.557500
     19 C4A          2.7250    -0.2130    -0.1410 cc         1 1XL       0.259800
     20 N5           3.2030     0.9820    -0.3310 nd         1 1XL      -0.500000
     21 C6           2.4150     2.0380    -0.1010 cd         1 1XL       0.295600
     22 CAI          2.9740     3.4050    -0.3480 c3         1 1XL       0.114100
     23 OAC          4.0710     3.5960     0.5100 oh         1 1XL      -0.577800
     24 H1          -7.4870     0.1800    -0.3670 ho         1 1XL       0.406000
     25 H2          -5.7470     1.1490     0.8460 h1         1 1XL       0.026200
     26 H3          -5.7080    -0.6140     0.8720 h1         1 1XL       0.026200
     27 H4          -4.1780    -0.5950    -1.1010 h1         1 1XL       0.104700
     28 H5          -4.2720     2.1990    -0.7790 ho         1 1XL       0.392000
     29 H6          -3.2820     1.0880     1.2800 h1         1 1XL       0.062700
     30 H7          -3.1970    -1.6960     0.8560 ho         1 1XL       0.423000
     31 H8          -1.7220     1.2240    -0.6460 h1         1 1XL       0.075700
     32 H9          -0.9480    -1.4210    -0.3890 ho         1 1XL       0.448000
     33 H10         -0.9390     1.3610     1.6720 h1         1 1XL       0.090700
     34 H11         -0.7260    -0.3850     1.7580 h1         1 1XL       0.090700
     35 H12          0.4810     2.6790     0.5960 h4         1 1XL       0.172000
     36 H14          3.4980    -3.4130    -0.3460 hn         1 1XL       0.341500
     37 H15          3.2680     3.4710    -1.4020 h1         1 1XL       0.034700
     38 H16          2.1860     4.1510    -0.1910 h1         1 1XL       0.034700
     39 H17          4.5690     4.3540     0.1880 ho         1 1XL       0.413000
@<TRIPOS>BOND
     1     1     2 1   
     2     1    24 1   
     3     2     3 1   
     4     2    25 1   
     5     2    26 1   
     6     3     4 1   
     7     3     5 1   
     8     3    27 1   
     9     4    28 1   
    10     5     6 1   
    11     5     7 1   
    12     5    29 1   
    13     6    30 1   
    14     7     8 1   
    15     7     9 1   
    16     7    31 1   
    17     8    32 1   
    18     9    10 1   
    19     9    33 1   
    20     9    34 1   
    21    10    11 1   
    22    10    12 1   
    23    11    21 2   
    24    11    35 1   
    25    12    13 2   
    26    12    19 1   
    27    13    14 1   
    28    14    15 2   
    29    14    16 1   
    30    16    17 1   
    31    16    36 1   
    32    17    18 2   
    33    17    19 1   
    34    19    20 2   
    35    20    21 1   
    36    21    22 1   
    37    22    23 1   
    38    22    37 1   
    39    22    38 1   
    40    23    39 1   
@<TRIPOS>SUBSTRUCTURE
     1 1XL         1 TEMP              0 ****  ****    0 ROOT
