@<TRIPOS>MOLECULE
1XM
   16    17     1     0     0
SMALL
abcg2


@<TRIPOS>ATOM
      1 N1           2.8430    15.0900    42.0760 nv         1 1XM      -1.011200
      2 C2           3.4350    14.0790    42.7090 cc         1 1XM       0.819800
      3 N3           3.5250    14.1440    44.0450 nd         1 1XM      -0.719100
      4 C4           4.1000    13.1710    44.7680 cs         1 1XM       0.577800
      5 S5           4.2190    13.2410    46.4590 s          1 1XM      -0.576400
      6 N6           4.6240    12.0580    44.1320 ns         1 1XM      -0.453600
      7 C7           4.5500    11.9640    42.7860 cd         1 1XM       0.070600
      8 N8           4.9790    11.0030    41.9590 na         1 1XM      -0.050200
      9 N9           4.7000    11.3100    40.6520 nd         1 1XM      -0.489800
     10 C10          4.0910    12.4790    40.6780 cc         1 1XM       0.316900
     11 C11          3.9610    12.9560    42.0090 cc         1 1XM      -0.411900
     12 H1           2.4850    15.8670    42.6080 hn         1 1XM       0.511500
     13 H2           2.7490    15.1040    41.0740 hn         1 1XM       0.511500
     14 H3           5.0470    11.3340    44.6970 hn         1 1XM       0.471000
     15 H4           5.4490    10.1410    42.1880 hn         1 1XM       0.388000
     16 H5           3.7650    12.9440    39.7600 h4         1 1XM       0.045100
@<TRIPOS>BOND
     1     1     2 1   
     2     1    12 1   
     3     1    13 1   
     4     2     3 2   
     5     2    11 1   
     6     3     4 1   
     7     4     5 2   
     8     4     6 1   
     9     6     7 1   
    10     6    14 1   
    11     7     8 1   
    12     7    11 2   
    13     8     9 1   
    14     8    15 1   
    15     9    10 2   
    16    10    11 1   
    17    10    16 1   
@<TRIPOS>SUBSTRUCTURE
     1 1XM         1 TEMP              0 ****  ****    0 ROOT
