@<TRIPOS>MOLECULE
1XM
   16    17     1     0     0
SMALL
No Charge or Current Charge


@<TRIPOS>ATOM
      1 N1           2.7550    14.9540    42.0330 nv         1 1XM      -1.011200
      2 C2           3.3700    14.0000    42.7130 cc         1 1XM       0.819800
      3 N3           3.4310    14.1410    44.0000 nd         1 1XM      -0.719100
      4 C4           4.0800    13.1660    44.7840 cs         1 1XM       0.577800
      5 S5           4.1660    13.3320    46.4370 s          1 1XM      -0.576400
      6 N6           4.6480    12.0670    44.1720 ns         1 1XM      -0.453600
      7 C7           4.5520    11.9730    42.8020 cd         1 1XM       0.070600
      8 N8           4.9990    11.0170    41.8910 na         1 1XM      -0.050200
      9 N9           4.6470    11.3640    40.5730 nd         1 1XM      -0.489800
     10 C10          4.0020    12.5120    40.7300 cc         1 1XM       0.316900
     11 C11          3.9360    12.8980    42.0680 cc         1 1XM      -0.411900
     12 H1           2.6170    15.7920    42.5800 hn         1 1XM       0.511500
     13 H2           3.0890    15.1030    41.0920 hn         1 1XM       0.511500
     14 H3           5.1100    11.3780    44.7570 hn         1 1XM       0.471000
     15 H4           5.5150    10.1650    42.1080 hn         1 1XM       0.388000
     16 H5           3.6040    13.0220    39.8620 h4         1 1XM       0.045100
@<TRIPOS>BOND
     1     1     2 1   
     2     1    12 1   
     3     1    13 1   
     4     2     3 2   
     5     2    11 1   
     6     3     4 1   
     7     4     5 2   
     8     4     6 1   
     9     6     7 1   
    10     6    14 1   
    11     7     8 1   
    12     7    11 2   
    13     8     9 1   
    14     8    15 1   
    15     9    10 2   
    16    10    11 1   
    17    10    16 1   
@<TRIPOS>SUBSTRUCTURE
     1 1XM         1 TEMP              0 ****  ****    0 ROOT
