@<TRIPOS>MOLECULE
1XO
   50    53     1     0     0
SMALL
No Charge or Current Charge


@<TRIPOS>ATOM
      1 S1           0.1450     1.4390    -0.8280 ss         1 1XO       0.237000
      2 C2           0.3500     0.2170    -2.0860 cc         1 1XO      -0.259300
      3 C3           1.2550     0.6390    -3.0290 cd         1 1XO      -0.124000
      4 C5           1.8100     1.9160    -2.7530 cd         1 1XO      -0.135000
      5 C7           1.3310     2.4840    -1.6000 cc         1 1XO      -0.232000
      6 C9          -0.3900    -1.0940    -2.0470 c3         1 1XO       0.178300
      7 N12         -0.2140    -1.7760    -0.7400 n          1 1XO      -0.399800
      8 C13          1.1250    -2.3880    -0.4800 c3         1 1XO       0.061700
      9 C16          2.1470    -1.3880     0.0270 cc         1 1XO       0.480900
     10 N17          2.0700    -0.8830     1.2610 nd         1 1XO      -0.612100
     11 C18          3.0420     0.0890     1.5560 ca         1 1XO       0.193400
     12 C19          4.0330     0.5070     0.6460 ca         1 1XO      -0.202600
     13 C20          4.9680     1.4990     1.0120 ca         1 1XO      -0.040000
     14 C22          4.9170     2.0750     2.2910 ca         1 1XO      -0.136000
     15 C24          3.9350     1.6630     3.2040 ca         1 1XO      -0.077000
     16 C26          3.0050     0.6760     2.8340 ca         1 1XO      -0.105000
     17 C28          4.0680    -0.1170    -0.6980 c          1 1XO       0.579600
     18 N29          3.1060    -1.0450    -0.8940 ns         1 1XO      -0.429400
     19 O31          4.8880     0.1560    -1.5610 o          1 1XO      -0.541000
     20 C32         -1.2340    -1.8330     0.2460 c          1 1XO       0.617100
     21 O33         -1.0510    -2.4430     1.2920 o          1 1XO      -0.582100
     22 C34         -2.5830    -1.1290    -0.0150 c3         1 1XO      -0.151400
     23 C37         -3.5620    -1.0910     1.1810 c3         1 1XO      -0.020100
     24 C40         -4.8470    -0.3510     0.8340 ca         1 1XO      -0.086300
     25 C41         -5.9750    -1.0600     0.3770 ca         1 1XO      -0.107500
     26 C43         -7.1590    -0.3750     0.0500 ca         1 1XO      -0.109500
     27 C45         -7.2200     1.0230     0.1770 ca         1 1XO      -0.111000
     28 C47         -6.0970     1.7360     0.6290 ca         1 1XO      -0.109500
     29 C49         -4.9130     1.0500     0.9560 ca         1 1XO      -0.107500
     30 H1           1.5320     0.0480    -3.8980 ha         1 1XO       0.128000
     31 H2           2.5490     2.3940    -3.3900 ha         1 1XO       0.138000
     32 H3           1.5790     3.4360    -1.1490 h4         1 1XO       0.152000
     33 H4          -1.4460    -0.9270    -2.2860 h1         1 1XO       0.061200
     34 H5           0.0040    -1.7480    -2.8360 h1         1 1XO       0.061200
     35 H6           1.0370    -3.1970     0.2560 h1         1 1XO       0.076200
     36 H7           1.4910    -2.8530    -1.4040 h1         1 1XO       0.076200
     37 H8           5.7330     1.8230     0.3080 ha         1 1XO       0.134000
     38 H9           5.6380     2.8390     2.5740 ha         1 1XO       0.119000
     39 H10          3.8910     2.1070     4.1970 ha         1 1XO       0.115000
     40 H11          2.2450     0.3630     3.5450 ha         1 1XO       0.132000
     41 H12          3.0860    -1.4690    -1.8090 hn         1 1XO       0.325500
     42 H13         -2.3870    -0.1220    -0.3970 hc         1 1XO       0.061700
     43 H14         -3.0460    -1.6110    -0.8840 hc         1 1XO       0.061700
     44 H15         -3.7890    -2.1160     1.5000 hc         1 1XO       0.064700
     45 H16         -3.0710    -0.6060     2.0350 hc         1 1XO       0.064700
     46 H17         -5.9360    -2.1430     0.2730 ha         1 1XO       0.111500
     47 H18         -8.0270    -0.9280    -0.3020 ha         1 1XO       0.112000
     48 H19         -8.1350     1.5530    -0.0770 ha         1 1XO       0.112000
     49 H20         -6.1420     2.8180     0.7260 ha         1 1XO       0.112000
     50 H21         -4.0470     1.6100     1.3040 ha         1 1XO       0.111500
@<TRIPOS>BOND
     1     1     2 1   
     2     1     5 1   
     3     2     3 2   
     4     2     6 1   
     5     3     4 1   
     6     3    30 1   
     7     4     5 2   
     8     4    31 1   
     9     5    32 1   
    10     6     7 1   
    11     6    33 1   
    12     6    34 1   
    13     7     8 1   
    14     7    20 1   
    15     8     9 1   
    16     8    35 1   
    17     8    36 1   
    18     9    10 2   
    19     9    18 1   
    20    10    11 1   
    21    11    12 ar  
    22    11    16 ar  
    23    12    13 ar  
    24    12    17 1   
    25    13    14 ar  
    26    13    37 1   
    27    14    15 ar  
    28    14    38 1   
    29    15    16 ar  
    30    15    39 1   
    31    16    40 1   
    32    17    18 1   
    33    17    19 2   
    34    18    41 1   
    35    20    21 2   
    36    20    22 1   
    37    22    23 1   
    38    22    42 1   
    39    22    43 1   
    40    23    24 1   
    41    23    44 1   
    42    23    45 1   
    43    24    25 ar  
    44    24    29 ar  
    45    25    26 ar  
    46    25    46 1   
    47    26    27 ar  
    48    26    47 1   
    49    27    28 ar  
    50    27    48 1   
    51    28    29 ar  
    52    28    49 1   
    53    29    50 1   
@<TRIPOS>SUBSTRUCTURE
     1 1XO         1 TEMP              0 ****  ****    0 ROOT
