@<TRIPOS>MOLECULE
1XO
   50    53     1     0     0
SMALL
bcc


@<TRIPOS>ATOM
      1 S1          -0.1060     1.7680    -1.1970 ss         1 1XO      -0.052800
      2 C2           0.3080     0.4290    -2.1940 cc         1 1XO      -0.114400
      3 C3           1.5120     0.6340    -2.8000 cd         1 1XO      -0.142000
      4 C5           2.1070     1.8770    -2.4520 cd         1 1XO      -0.153000
      5 C7           1.3400     2.5960    -1.5890 cc         1 1XO      -0.105100
      6 C9          -0.5240    -0.8140    -2.2250 c3         1 1XO       0.178300
      7 N12         -0.2980    -1.6730    -1.0710 n          1 1XO      -0.466800
      8 C13          1.0160    -2.2490    -0.9800 c3         1 1XO       0.061700
      9 C16          2.0130    -1.3290    -0.3180 cc         1 1XO       0.480900
     10 N17          1.6350    -0.4530     0.5320 nd         1 1XO      -0.612100
     11 C18          2.5950     0.3620     1.0790 ca         1 1XO       0.193400
     12 C19          3.9570     0.2430     0.7590 ca         1 1XO      -0.202600
     13 C20          4.8980     1.1010     1.3360 ca         1 1XO      -0.058000
     14 C22          4.4910     2.0690     2.2280 ca         1 1XO      -0.154000
     15 C24          3.1340     2.1890     2.5530 ca         1 1XO      -0.095000
     16 C26          2.1980     1.3510     1.9890 ca         1 1XO      -0.123000
     17 C28          4.3700    -0.7810    -0.1900 c          1 1XO       0.722100
     18 N29          3.3150    -1.5210    -0.6760 ns         1 1XO      -0.496400
     19 O31          5.5130    -0.9960    -0.5520 o          1 1XO      -0.616500
     20 C32         -1.1470    -1.7980    -0.0180 c          1 1XO       0.684100
     21 O33         -0.8680    -2.4950     0.9430 o          1 1XO      -0.582100
     22 C34         -2.4720    -1.0650    -0.1000 c3         1 1XO      -0.151400
     23 C37         -3.3160    -1.2240     1.1620 c3         1 1XO      -0.020100
     24 C40         -4.6140    -0.4750     1.0260 ca         1 1XO      -0.086300
     25 C41         -5.7580    -1.1090     0.5470 ca         1 1XO      -0.125500
     26 C43         -6.9470    -0.4070     0.3870 ca         1 1XO      -0.127500
     27 C45         -7.0070     0.9440     0.7030 ca         1 1XO      -0.129000
     28 C47         -5.8720     1.5870     1.1800 ca         1 1XO      -0.127500
     29 C49         -4.6870     0.8810     1.3390 ca         1 1XO      -0.125500
     30 H1           1.9680    -0.0870    -3.4660 ha         1 1XO       0.146000
     31 H2           3.0620     2.2170    -2.8270 ha         1 1XO       0.156000
     32 H3           1.5440     3.5680    -1.1680 h4         1 1XO       0.170000
     33 H4          -1.5830    -0.5840    -2.3130 h1         1 1XO       0.061200
     34 H5          -0.2640    -1.3780    -3.1240 h1         1 1XO       0.061200
     35 H6           0.9820    -3.1860    -0.4230 h1         1 1XO       0.076200
     36 H7           1.3620    -2.4980    -1.9860 h1         1 1XO       0.076200
     37 H8           5.9430     1.0000     1.0760 ha         1 1XO       0.152000
     38 H9           5.2150     2.7360     2.6760 ha         1 1XO       0.137000
     39 H10          2.8180     2.9510     3.2540 ha         1 1XO       0.133000
     40 H11          1.1470     1.4430     2.2280 ha         1 1XO       0.150000
     41 H12          3.5340    -2.2350    -1.3600 hn         1 1XO       0.325500
     42 H13         -2.2990    -0.0010    -0.2880 hc         1 1XO       0.061700
     43 H14         -3.0340    -1.4320    -0.9650 hc         1 1XO       0.061700
     44 H15         -3.5130    -2.2810     1.3450 hc         1 1XO       0.064700
     45 H16         -2.7620    -0.8490     2.0240 hc         1 1XO       0.064700
     46 H17         -5.7210    -2.1630     0.3000 ha         1 1XO       0.129500
     47 H18         -7.8270    -0.9180     0.0190 ha         1 1XO       0.130000
     48 H19         -7.9330     1.4910     0.5800 ha         1 1XO       0.130000
     49 H20         -5.9100     2.6390     1.4310 ha         1 1XO       0.130000
     50 H21         -3.8060     1.3890     1.7160 ha         1 1XO       0.129500
@<TRIPOS>BOND
     1     1     2 1   
     2     1     5 1   
     3     2     3 2   
     4     2     6 1   
     5     3     4 1   
     6     3    30 1   
     7     4     5 2   
     8     4    31 1   
     9     5    32 1   
    10     6     7 1   
    11     6    33 1   
    12     6    34 1   
    13     7     8 1   
    14     7    20 1   
    15     8     9 1   
    16     8    35 1   
    17     8    36 1   
    18     9    10 2   
    19     9    18 1   
    20    10    11 1   
    21    11    12 ar  
    22    11    16 ar  
    23    12    13 ar  
    24    12    17 1   
    25    13    14 ar  
    26    13    37 1   
    27    14    15 ar  
    28    14    38 1   
    29    15    16 ar  
    30    15    39 1   
    31    16    40 1   
    32    17    18 1   
    33    17    19 2   
    34    18    41 1   
    35    20    21 2   
    36    20    22 1   
    37    22    23 1   
    38    22    42 1   
    39    22    43 1   
    40    23    24 1   
    41    23    44 1   
    42    23    45 1   
    43    24    25 ar  
    44    24    29 ar  
    45    25    26 ar  
    46    25    46 1   
    47    26    27 ar  
    48    26    47 1   
    49    27    28 ar  
    50    27    48 1   
    51    28    29 ar  
    52    28    49 1   
    53    29    50 1   
@<TRIPOS>SUBSTRUCTURE
     1 1XO         1 TEMP              0 ****  ****    0 ROOT
