@<TRIPOS>MOLECULE
1XP
   54    56     1     0     0
SMALL
bcc


@<TRIPOS>ATOM
      1 C1           4.5080    -0.3540    -0.4550 ca         1 1XP      -0.202600
      2 C2           5.6440    -1.0400     0.0130 ca         1 1XP       0.222100
      3 C3           4.5810     1.0050    -0.6760 ca         1 1XP      -0.024000
      4 C4           3.2450    -1.0970    -0.7750 c          1 1XP       0.694700
      5 C5           6.8310    -0.3440     0.2420 ca         1 1XP      -0.239000
      6 O1           5.5010    -2.3390     0.2360 os         1 1XP      -0.289900
      7 C6           5.7670     1.7110    -0.4620 ca         1 1XP      -0.066000
      8 N1           2.1630    -0.6360    -0.1340 ns         1 1XP      -0.576900
      9 O2           3.2300    -2.0110    -1.5830 o          1 1XP      -0.571100
     10 C7           6.8830     1.0150    -0.0010 ca         1 1XP       0.113400
     11 C8           6.5930    -3.0830     0.7590 c3         1 1XP       0.121700
     12 C9           5.8210     3.1080    -0.7140 cg         1 1XP       0.240800
     13 C10          0.8240    -1.1460    -0.3400 c3         1 1XP       0.100000
     14 CL1          8.3540     1.8590     0.2750 cl         1 1XP      -0.071400
     15 N2           5.8440     4.2400    -0.9270 n1         1 1XP      -0.350800
     16 C11         -0.1820    -0.0230    -0.1120 c3         1 1XP       0.151800
     17 N3          -1.5500    -0.4520    -0.3140 n3         1 1XP      -0.712600
     18 C12         -2.4290     0.6910    -0.4950 c6         1 1XP       0.165300
     19 C13         -2.0310    -1.3030     0.7630 c6         1 1XP       0.165300
     20 C14         -3.8490     0.2610    -0.8220 c6         1 1XP      -0.067400
     21 C15         -3.4300    -1.8240     0.4730 c6         1 1XP      -0.067400
     22 C16         -4.3940    -0.6610     0.2800 c6         1 1XP      -0.159700
     23 C17         -5.7980    -1.1040    -0.0610 c          1 1XP       0.589700
     24 C18         -6.9080    -0.1140     0.0440 ca         1 1XP      -0.192600
     25 O3          -6.0270    -2.2320    -0.4460 o          1 1XP      -0.517100
     26 C19         -8.1550    -0.4420    -0.4950 ca         1 1XP      -0.057000
     27 C20         -6.7540     1.1250     0.6670 ca         1 1XP      -0.057000
     28 C21         -9.2190     0.4380    -0.4210 ca         1 1XP      -0.186500
     29 C22         -7.8110     2.0160     0.7580 ca         1 1XP      -0.186500
     30 C23         -9.0260     1.6550     0.2080 ca         1 1XP       0.163900
     31 F1         -10.0500     2.5110     0.2860 f          1 1XP      -0.136900
     32 H1           3.7130     1.5400    -1.0390 ha         1 1XP       0.153000
     33 H2           7.7150    -0.8440     0.6080 ha         1 1XP       0.160000
     34 H3           2.2970     0.0350     0.6070 hn         1 1XP       0.312500
     35 H4           7.4470    -3.0750     0.0800 h1         1 1XP       0.051033
     36 H5           6.9020    -2.7070     1.7360 h1         1 1XP       0.051033
     37 H6           6.2370    -4.1030     0.8680 h1         1 1XP       0.051033
     38 H7           0.7370    -1.5130    -1.3620 h1         1 1XP       0.064200
     39 H8           0.6400    -1.9910     0.3290 h1         1 1XP       0.064200
     40 H9          -0.0320     0.4080     0.8930 h1         1 1XP       0.032200
     41 H10          0.0380     0.7720    -0.8290 h1         1 1XP       0.032200
     42 H12         -2.4450     1.3330     0.4040 h1         1 1XP       0.032450
     43 H13         -2.0400     1.3030    -1.3120 h1         1 1XP       0.032450
     44 H14         -1.3570    -2.1520     0.8840 h1         1 1XP       0.032450
     45 H15         -2.0330    -0.7600     1.7260 h1         1 1XP       0.032450
     46 H16         -4.4710     1.1510    -0.9370 hc         1 1XP       0.060450
     47 H17         -3.8590    -0.2700    -1.7780 hc         1 1XP       0.060450
     48 H18         -3.4040    -2.4470    -0.4240 hc         1 1XP       0.060450
     49 H19         -3.7520    -2.4590     1.3000 hc         1 1XP       0.060450
     50 H20         -4.4230    -0.0880     1.2140 hc         1 1XP       0.059700
     51 H21         -8.2960    -1.3960    -0.9840 ha         1 1XP       0.146500
     52 H22         -5.8080     1.4170     1.1020 ha         1 1XP       0.146500
     53 H23        -10.1820     0.1850    -0.8450 ha         1 1XP       0.154500
     54 H24         -7.6910     2.9730     1.2470 ha         1 1XP       0.154500
@<TRIPOS>BOND
     1     1     2 ar  
     2     1     3 ar  
     3     1     4 1   
     4     2     5 ar  
     5     2     6 1   
     6     3     7 ar  
     7     3    32 1   
     8     4     8 1   
     9     4     9 2   
    10     5    10 ar  
    11     5    33 1   
    12     6    11 1   
    13     7    10 ar  
    14     7    12 1   
    15     8    13 1   
    16     8    34 1   
    17    10    14 1   
    18    11    35 1   
    19    11    36 1   
    20    11    37 1   
    21    12    15 3   
    22    13    16 1   
    23    13    38 1   
    24    13    39 1   
    25    16    17 1   
    26    16    40 1   
    27    16    41 1   
    28    17    18 1   
    29    17    19 1   
    30    18    20 1   
    31    18    42 1   
    32    18    43 1   
    33    19    21 1   
    34    19    44 1   
    35    19    45 1   
    36    20    22 1   
    37    20    46 1   
    38    20    47 1   
    39    21    22 1   
    40    21    48 1   
    41    21    49 1   
    42    22    23 1   
    43    22    50 1   
    44    23    24 1   
    45    23    25 2   
    46    24    26 ar  
    47    24    27 ar  
    48    26    28 ar  
    49    26    51 1   
    50    27    29 ar  
    51    27    52 1   
    52    28    30 ar  
    53    28    53 1   
    54    29    30 ar  
    55    29    54 1   
    56    30    31 1   
@<TRIPOS>SUBSTRUCTURE
     1 1XP         1 TEMP              0 ****  ****    0 ROOT
