@<TRIPOS>MOLECULE
1XP
   54    56     1     0     0
SMALL
No Charge or Current Charge


@<TRIPOS>ATOM
      1 C1           4.6830    -0.5400    -0.1560 ca         1 1XP      -0.202600
      2 C2           5.8030    -1.2310     0.3680 ca         1 1XP       0.222100
      3 C3           4.8340     0.8150    -0.5420 ca         1 1XP      -0.006000
      4 C4           3.3450    -1.2280    -0.3220 c          1 1XP       0.627700
      5 C5           7.0400    -0.5630     0.4980 ca         1 1XP      -0.221000
      6 O1           5.6590    -2.5420     0.7810 os         1 1XP      -0.313100
      7 C6           6.0700     1.4730    -0.4100 ca         1 1XP      -0.066000
      8 N1           2.2430    -0.4010    -0.3190 ns         1 1XP      -0.509900
      9 O2           3.2200    -2.4300    -0.5050 o          1 1XP      -0.571100
     10 C7           7.1740     0.7770     0.1130 ca         1 1XP       0.205000
     11 C8           6.7430    -3.3150     1.3280 c3         1 1XP       0.144900
     12 C9           6.1890     2.8450    -0.8170 cg         1 1XP       0.330000
     13 C10          0.8620    -0.8650    -0.5070 c3         1 1XP       0.100000
     14 Cl1          8.7500     1.5530     0.3020 cl         1 1XP      -0.163000
     15 N2           6.2710     3.9600    -1.1530 n1         1 1XP      -0.440000
     16 C11         -0.1660     0.2920    -0.4460 c3         1 1XP       0.151800
     17 N3          -1.5700    -0.0900    -0.7520 n3         1 1XP      -0.712600
     18 C12         -2.4440     1.1100    -0.9010 c6         1 1XP       0.165300
     19 C13         -2.1480    -1.0620     0.2250 c6         1 1XP       0.165300
     20 C14         -3.8710     0.7350    -1.3700 c6         1 1XP      -0.067400
     21 C15         -3.5640    -1.5300    -0.1930 c6         1 1XP      -0.067400
     22 C16         -4.5040    -0.3200    -0.4290 c6         1 1XP      -0.159700
     23 C17         -5.9490    -0.7090    -0.8240 c          1 1XP       0.589700
     24 C18         -7.1100    -0.1180    -0.0530 ca         1 1XP      -0.192600
     25 O3          -6.1460    -1.4740    -1.7620 o          1 1XP      -0.517100
     26 C19         -8.3130    -0.8530     0.0480 ca         1 1XP      -0.039000
     27 C20         -7.0390     1.1630     0.5470 ca         1 1XP      -0.039000
     28 C21         -9.4130    -0.3300     0.7500 ca         1 1XP      -0.168500
     29 C22         -8.1430     1.6810     1.2460 ca         1 1XP      -0.168500
     30 C23         -9.3240     0.9330     1.3490 ca         1 1XP       0.199000
     31 F1         -10.3820     1.4360     2.0210 f          1 1XP      -0.172000
     32 H1           3.9990     1.3650    -0.9730 ha         1 1XP       0.135000
     33 H2           7.9130    -1.0640     0.9010 ha         1 1XP       0.142000
     34 H3           2.4030     0.5810    -0.1340 hn         1 1XP       0.312500
     35 H4           7.5630    -3.4050     0.6040 h1         1 1XP       0.051033
     36 H5           7.1300    -2.8520     2.2450 h1         1 1XP       0.051033
     37 H6           6.3990    -4.3260     1.5780 h1         1 1XP       0.051033
     38 H7           0.7860    -1.3600    -1.4840 h1         1 1XP       0.064200
     39 H8           0.6360    -1.6050     0.2710 h1         1 1XP       0.064200
     40 H9          -0.1150     0.7520     0.5500 h1         1 1XP       0.032200
     41 H10          0.1610     1.0540    -1.1670 h1         1 1XP       0.032200
     42 H12         -2.5120     1.6490     0.0560 h1         1 1XP       0.032450
     43 H13         -2.0110     1.8080    -1.6320 h1         1 1XP       0.032450
     44 H14         -1.5120    -1.9540     0.3120 h1         1 1XP       0.032450
     45 H15         -2.2010    -0.6060     1.2250 h1         1 1XP       0.032450
     46 H16         -4.4950     1.6380    -1.4160 hc         1 1XP       0.060450
     47 H17         -3.8210     0.3360    -2.3930 hc         1 1XP       0.060450
     48 H18         -3.4880    -2.1280    -1.1120 hc         1 1XP       0.060450
     49 H19         -3.9790    -2.1920     0.5800 hc         1 1XP       0.060450
     50 H20         -4.5900     0.1790     0.5440 hc         1 1XP       0.059700
     51 H21         -8.3960    -1.8370    -0.4120 ha         1 1XP       0.128500
     52 H22         -6.1430     1.7740     0.4650 ha         1 1XP       0.128500
     53 H23        -10.3340    -0.9030     0.8300 ha         1 1XP       0.136500
     54 H24         -8.0860     2.6650     1.7050 ha         1 1XP       0.136500
@<TRIPOS>BOND
     1     1     2 ar  
     2     1     3 ar  
     3     1     4 1   
     4     2     5 ar  
     5     2     6 1   
     6     3     7 ar  
     7     3    32 1   
     8     4     8 1   
     9     4     9 2   
    10     5    10 ar  
    11     5    33 1   
    12     6    11 1   
    13     7    10 ar  
    14     7    12 1   
    15     8    13 1   
    16     8    34 1   
    17    10    14 1   
    18    11    35 1   
    19    11    36 1   
    20    11    37 1   
    21    12    15 3   
    22    13    16 1   
    23    13    38 1   
    24    13    39 1   
    25    16    17 1   
    26    16    40 1   
    27    16    41 1   
    28    17    18 1   
    29    17    19 1   
    30    18    20 1   
    31    18    42 1   
    32    18    43 1   
    33    19    21 1   
    34    19    44 1   
    35    19    45 1   
    36    20    22 1   
    37    20    46 1   
    38    20    47 1   
    39    21    22 1   
    40    21    48 1   
    41    21    49 1   
    42    22    23 1   
    43    22    50 1   
    44    23    24 1   
    45    23    25 2   
    46    24    26 ar  
    47    24    27 ar  
    48    26    28 ar  
    49    26    51 1   
    50    27    29 ar  
    51    27    52 1   
    52    28    30 ar  
    53    28    53 1   
    54    29    30 ar  
    55    29    54 1   
    56    30    31 1   
@<TRIPOS>SUBSTRUCTURE
     1 1XP         1 TEMP              0 ****  ****    0 ROOT
