@<TRIPOS>MOLECULE
1XQ
   66    70     1     0     0
SMALL
abcg2


@<TRIPOS>ATOM
      1 O1          -4.0560    -4.7230     1.0830 os         1 1XQ      -0.443000
      2 C1          -3.7380    -3.8900     2.1780 c6         1 1XQ       0.154600
      3 C2          -2.9860    -2.6560     1.7080 c6         1 1XQ      -0.071200
      4 C3          -4.9970    -4.1370     0.2200 c6         1 1XQ       0.217800
      5 C4          -4.6430    -2.7210    -0.1320 cc         1 1XQ      -0.298400
      6 C5          -3.6920    -2.0270     0.5500 cd         1 1XQ       0.200400
      7 N1          -3.3330    -0.7500     0.2420 nd         1 1XQ      -0.658300
      8 C6          -3.9420    -0.1800    -0.7400 cc         1 1XQ       0.486900
      9 N2          -4.9100    -0.7890    -1.4540 ns         1 1XQ      -0.401400
     10 C7          -5.3450    -2.0840    -1.2110 c          1 1XQ       0.570200
     11 C8          -3.6030     1.2410    -1.1160 c3         1 1XQ       0.053700
     12 N3          -2.4250     1.6880    -0.4250 n          1 1XQ      -0.400800
     13 O2          -6.2410    -2.5830    -1.8770 o          1 1XQ      -0.545000
     14 C9          -1.2370     1.1510    -0.8240 c          1 1XQ       0.611100
     15 O3          -1.1540     0.5500    -1.8780 o          1 1XQ      -0.561100
     16 C10         -0.0360     1.3500     0.0900 c3         1 1XQ       0.096800
     17 N4           1.1540     0.7390    -0.4340 n3         1 1XQ      -0.698600
     18 C11          1.1590    -0.7050    -0.2440 c6         1 1XQ       0.166800
     19 C12          2.3640    -1.3370    -0.9190 c6         1 1XQ      -0.065400
     20 C13          3.6440    -0.7450    -0.3450 c6         1 1XQ      -0.159700
     21 C14          3.6100     0.7860    -0.4950 c6         1 1XQ      -0.065400
     22 C15          2.3450     1.3460     0.1380 c6         1 1XQ       0.166800
     23 C16          4.8890    -1.2920    -0.9940 c          1 1XQ       0.588700
     24 O4           4.8560    -1.8690    -2.0620 o          1 1XQ      -0.515100
     25 C17          6.1990    -1.1010    -0.3000 ca         1 1XQ      -0.192600
     26 C18          7.3770    -1.3880    -0.9950 ca         1 1XQ      -0.040000
     27 C19          8.6660    -0.8020     0.9150 ca         1 1XQ       0.197000
     28 C20          7.5260    -0.5120     1.6380 ca         1 1XQ      -0.168000
     29 C21          8.6150    -1.2380    -0.3970 ca         1 1XQ      -0.168000
     30 C22          6.2930    -0.6630     1.0220 ca         1 1XQ      -0.040000
     31 F1           9.8600    -0.6550     1.5010 f          1 1XQ      -0.173000
     32 C23         -2.6410     2.3530     0.8450 c3         1 1XQ       0.176300
     33 C24         -3.3130     3.6760     0.6610 cc         1 1XQ      -0.253300
     34 C25         -4.3410     4.2090     1.3770 cd         1 1XQ      -0.121000
     35 C26         -4.6830     5.5260     0.9580 cd         1 1XQ      -0.134000
     36 C27         -3.9110     5.9600    -0.0730 cc         1 1XQ      -0.237000
     37 S1          -2.7650     4.7740    -0.5480 ss         1 1XQ       0.222000
     38 H1          -4.6490    -3.5900     2.7140 h1         1 1XQ       0.050200
     39 H2          -3.1290    -4.4780     2.8650 h1         1 1XQ       0.050200
     40 H3          -2.9000    -1.9270     2.5160 hc         1 1XQ       0.072200
     41 H4          -1.9650    -2.9090     1.4080 hc         1 1XQ       0.072200
     42 H5          -5.0280    -4.7530    -0.6820 h1         1 1XQ       0.065200
     43 H6          -6.0060    -4.1660     0.6580 h1         1 1XQ       0.065200
     44 H7          -5.3600    -0.2880    -2.2100 hn         1 1XQ       0.333500
     45 H8          -3.4880     1.3270    -2.1970 h1         1 1XQ       0.084700
     46 H9          -4.4440     1.8870    -0.8450 h1         1 1XQ       0.084700
     47 H10          0.1380     2.4250     0.2000 h1         1 1XQ       0.050200
     48 H11         -0.2850     0.9780     1.0990 h1         1 1XQ       0.050200
     49 H13          1.1610    -0.9550     0.8310 h1         1 1XQ       0.033950
     50 H14          0.2480    -1.1300    -0.6650 h1         1 1XQ       0.033950
     51 H15          2.3390    -2.4160    -0.7630 hc         1 1XQ       0.061950
     52 H16          2.3080    -1.1580    -1.9950 hc         1 1XQ       0.061950
     53 H17          3.6760    -0.9810     0.7220 hc         1 1XQ       0.057700
     54 H18          4.4780     1.2560    -0.0210 hc         1 1XQ       0.061950
     55 H19          3.6350     1.0470    -1.5550 hc         1 1XQ       0.061950
     56 H20          2.3010     2.4260    -0.0320 h1         1 1XQ       0.033950
     57 H21          2.3950     1.1970     1.2310 h1         1 1XQ       0.033950
     58 H22          7.3260    -1.7300    -2.0190 ha         1 1XQ       0.128500
     59 H23          7.5960    -0.1750     2.6640 ha         1 1XQ       0.135500
     60 H24          9.5260    -1.4550    -0.9390 ha         1 1XQ       0.135500
     61 H25          5.4050    -0.4420     1.5970 ha         1 1XQ       0.128500
     62 H26         -3.2470     1.7270     1.5060 h1         1 1XQ       0.063200
     63 H27         -1.6870     2.4950     1.3470 h1         1 1XQ       0.063200
     64 H28         -4.8350     3.6810     2.1800 ha         1 1XQ       0.134000
     65 H29         -5.4670     6.1170     1.4060 ha         1 1XQ       0.137000
     66 H30         -3.9580     6.9070    -0.5860 h4         1 1XQ       0.153000
@<TRIPOS>BOND
     1     1     2 1   
     2     1     4 1   
     3     2     3 1   
     4     2    38 1   
     5     2    39 1   
     6     3     6 1   
     7     3    40 1   
     8     3    41 1   
     9     4     5 1   
    10     4    42 1   
    11     4    43 1   
    12     5     6 2   
    13     5    10 1   
    14     6     7 1   
    15     7     8 2   
    16     8     9 1   
    17     8    11 1   
    18     9    10 1   
    19     9    44 1   
    20    10    13 2   
    21    11    12 1   
    22    11    45 1   
    23    11    46 1   
    24    12    14 1   
    25    12    32 1   
    26    14    15 2   
    27    14    16 1   
    28    16    17 1   
    29    16    47 1   
    30    16    48 1   
    31    17    18 1   
    32    17    22 1   
    33    18    19 1   
    34    18    49 1   
    35    18    50 1   
    36    19    20 1   
    37    19    51 1   
    38    19    52 1   
    39    20    21 1   
    40    20    23 1   
    41    20    53 1   
    42    21    22 1   
    43    21    54 1   
    44    21    55 1   
    45    22    56 1   
    46    22    57 1   
    47    23    24 2   
    48    23    25 1   
    49    25    26 ar  
    50    25    30 ar  
    51    26    29 ar  
    52    26    58 1   
    53    27    28 ar  
    54    27    29 ar  
    55    27    31 1   
    56    28    30 ar  
    57    28    59 1   
    58    29    60 1   
    59    30    61 1   
    60    32    33 1   
    61    32    62 1   
    62    32    63 1   
    63    33    34 2   
    64    33    37 1   
    65    34    35 1   
    66    34    64 1   
    67    35    36 2   
    68    35    65 1   
    69    36    37 1   
    70    36    66 1   
@<TRIPOS>SUBSTRUCTURE
     1 1XQ         1 TEMP              0 ****  ****    0 ROOT
