@<TRIPOS>MOLECULE
1XQ
   66    70     1     0     0
SMALL
No Charge or Current Charge


@<TRIPOS>ATOM
      1 O1          -5.1130    -5.2670     2.1300 os         1 1XQ      -0.443000
      2 C1          -6.3860    -4.6120     2.2850 c6         1 1XQ       0.154600
      3 C2          -6.1740    -3.0890     2.3940 c6         1 1XQ      -0.071200
      4 C3          -4.4460    -4.9580     0.8880 c6         1 1XQ       0.217800
      5 C4          -4.3950    -3.4650     0.6440 cc         1 1XQ      -0.298400
      6 C5          -5.2130    -2.5860     1.3390 cd         1 1XQ       0.200400
      7 N1          -5.1360    -1.2160     1.0710 nd         1 1XQ      -0.658300
      8 C6          -4.2670    -0.8380     0.1360 cc         1 1XQ       0.486900
      9 N2          -3.4690    -1.6960    -0.5560 ns         1 1XQ      -0.401400
     10 C7          -3.4520    -3.0270    -0.3800 c          1 1XQ       0.570200
     11 C8          -4.0890     0.6180    -0.2400 c3         1 1XQ       0.053700
     12 N3          -2.7720     1.1840     0.1780 n          1 1XQ      -0.400800
     13 O2          -2.7170    -3.7550    -1.0260 o          1 1XQ      -0.545000
     14 C9          -1.6170     0.9980    -0.6270 c          1 1XQ       0.611100
     15 O3          -1.7050     0.3310    -1.6540 o          1 1XQ      -0.561100
     16 C10         -0.2610     1.6500    -0.1840 c3         1 1XQ       0.096800
     17 N4           1.0120     1.1930    -0.8340 n3         1 1XQ      -0.698600
     18 C11          1.3300    -0.2360    -0.5390 c6         1 1XQ       0.166800
     19 C12          2.5680    -0.7240    -1.3300 c6         1 1XQ      -0.065400
     20 C13          3.7860     0.2040    -1.0820 c6         1 1XQ      -0.159700
     21 C14          3.4350     1.7000    -1.2920 c6         1 1XQ      -0.065400
     22 C15          2.1590     2.0860    -0.5050 c6         1 1XQ       0.166800
     23 C16          5.0740    -0.2340    -1.8200 c          1 1XQ       0.588700
     24 O4           5.0520    -0.4400    -3.0280 o          1 1XQ      -0.515100
     25 C17          6.3610    -0.3830    -1.0350 ca         1 1XQ      -0.192600
     26 C18          7.3320    -1.3090    -1.4770 ca         1 1XQ      -0.040000
     27 C19          8.7920    -0.6960     0.3670 ca         1 1XQ       0.197000
     28 C20          7.8450     0.2370     0.8110 ca         1 1XQ      -0.168000
     29 C21          8.5400    -1.4660    -0.7760 ca         1 1XQ      -0.168000
     30 C22          6.6340     0.3980     0.1150 ca         1 1XQ      -0.040000
     31 F1           9.9540    -0.8470     1.0380 f          1 1XQ      -0.173000
     32 C23         -2.7300     1.9160     1.4640 c3         1 1XQ       0.176300
     33 C24         -2.5070     3.3880     1.2530 cc         1 1XQ      -0.253300
     34 C25         -3.0690     4.2050     0.3020 cd         1 1XQ      -0.121000
     35 C26         -2.6270     5.5520     0.3790 cd         1 1XQ      -0.134000
     36 C27         -1.7280     5.7750     1.3910 cc         1 1XQ      -0.237000
     37 S1          -1.4080     4.2960     2.2910 ss         1 1XQ       0.222000
     38 H1          -7.0220    -4.8480     1.4190 h1         1 1XQ       0.050200
     39 H2          -6.8830    -4.9900     3.1890 h1         1 1XQ       0.050200
     40 H3          -7.1430    -2.5790     2.3110 hc         1 1XQ       0.072200
     41 H4          -5.7840    -2.8500     3.3920 hc         1 1XQ       0.072200
     42 H5          -3.4350    -5.3880     0.9280 h1         1 1XQ       0.065200
     43 H6          -4.9810    -5.4590     0.0680 h1         1 1XQ       0.065200
     44 H7          -2.8210    -1.3190    -1.2370 hn         1 1XQ       0.333500
     45 H8          -4.2080     0.7220    -1.3260 h1         1 1XQ       0.084700
     46 H9          -4.8980     1.2010     0.2180 h1         1 1XQ       0.084700
     47 H10         -0.3880     2.7270    -0.3520 h1         1 1XQ       0.050200
     48 H11         -0.1650     1.5120     0.9000 h1         1 1XQ       0.050200
     49 H13          1.5190    -0.3660     0.5370 h1         1 1XQ       0.033950
     50 H14          0.4800    -0.8840    -0.7950 h1         1 1XQ       0.033950
     51 H15          2.8090    -1.7560    -1.0430 hc         1 1XQ       0.061950
     52 H16          2.3250    -0.7440    -2.4020 hc         1 1XQ       0.061950
     53 H17          4.0140     0.1110    -0.0130 hc         1 1XQ       0.057700
     54 H18          4.2710     2.3410    -0.9820 hc         1 1XQ       0.061950
     55 H19          3.2720     1.8950    -2.3610 hc         1 1XQ       0.061950
     56 H20          1.9070     3.1310    -0.7390 h1         1 1XQ       0.033950
     57 H21          2.3750     2.0410     0.5730 h1         1 1XQ       0.033950
     58 H22          7.1500    -1.9150    -2.3640 ha         1 1XQ       0.128500
     59 H23          8.0510     0.8380     1.6930 ha         1 1XQ       0.135500
     60 H24          9.2820    -2.1840    -1.1180 ha         1 1XQ       0.135500
     61 H25          5.9260     1.1440     0.4690 ha         1 1XQ       0.128500
     62 H26         -3.6780     1.7760     2.0010 h1         1 1XQ       0.063200
     63 H27         -1.9410     1.4970     2.1030 h1         1 1XQ       0.063200
     64 H28         -3.7790     3.8550    -0.4420 ha         1 1XQ       0.134000
     65 H29         -2.9670     6.3300    -0.2980 ha         1 1XQ       0.137000
     66 H30         -1.2320     6.6940     1.6780 h4         1 1XQ       0.153000
@<TRIPOS>BOND
     1     1     2 1   
     2     1     4 1   
     3     2     3 1   
     4     2    38 1   
     5     2    39 1   
     6     3     6 1   
     7     3    40 1   
     8     3    41 1   
     9     4     5 1   
    10     4    42 1   
    11     4    43 1   
    12     5     6 2   
    13     5    10 1   
    14     6     7 1   
    15     7     8 2   
    16     8     9 1   
    17     8    11 1   
    18     9    10 1   
    19     9    44 1   
    20    10    13 2   
    21    11    12 1   
    22    11    45 1   
    23    11    46 1   
    24    12    14 1   
    25    12    32 1   
    26    14    15 2   
    27    14    16 1   
    28    16    17 1   
    29    16    47 1   
    30    16    48 1   
    31    17    18 1   
    32    17    22 1   
    33    18    19 1   
    34    18    49 1   
    35    18    50 1   
    36    19    20 1   
    37    19    51 1   
    38    19    52 1   
    39    20    21 1   
    40    20    23 1   
    41    20    53 1   
    42    21    22 1   
    43    21    54 1   
    44    21    55 1   
    45    22    56 1   
    46    22    57 1   
    47    23    24 2   
    48    23    25 1   
    49    25    26 ar  
    50    25    30 ar  
    51    26    29 ar  
    52    26    58 1   
    53    27    28 ar  
    54    27    29 ar  
    55    27    31 1   
    56    28    30 ar  
    57    28    59 1   
    58    29    60 1   
    59    30    61 1   
    60    32    33 1   
    61    32    62 1   
    62    32    63 1   
    63    33    34 2   
    64    33    37 1   
    65    34    35 1   
    66    34    64 1   
    67    35    36 2   
    68    35    65 1   
    69    36    37 1   
    70    36    66 1   
@<TRIPOS>SUBSTRUCTURE
     1 1XQ         1 TEMP              0 ****  ****    0 ROOT
