@<TRIPOS>MOLECULE
1XR
   34    34     1     0     0
SMALL
abcg2


@<TRIPOS>ATOM
      1 C1         101.1760   102.3860   101.9780 c3         1 1XR      -0.129100
      2 C2         100.2830   101.2800   101.3820 c3         1 1XR       0.106500
      3 C3         100.2760   100.1230   102.3710 c          1 1XR       0.583700
      4 C4         101.5220    99.3080   102.5310 ca         1 1XR      -0.161600
      5 C5         101.6500    98.5290   103.6810 ca         1 1XR      -0.054000
      6 C6         102.7810    97.7560   103.8610 ca         1 1XR       0.106000
      7 C11         98.7580   104.0500   100.4010 c3         1 1XR      -0.097767
      8 C13         99.4720   102.2960    98.7650 c3         1 1XR      -0.097767
      9 C12         97.1420   102.3290    99.6320 c3         1 1XR      -0.097767
     10 C7         103.7920    97.7240   102.9100 ca         1 1XR      -0.081000
     11 C8         103.6570    98.4910   101.7650 ca         1 1XR      -0.116000
     12 C9         102.5350    99.2830   101.5740 ca         1 1XR      -0.075000
     13 N1          98.9220   101.6330   101.0700 n7         1 1XR      -0.891400
     14 O1          99.3110    99.8890   103.0620 o          1 1XR      -0.507100
     15 CL1        102.9450    96.8090   105.3020 cl         1 1XR      -0.196000
     16 H1         102.1460   102.0070   102.2990 hc         1 1XR       0.043700
     17 H3         101.3620   103.1600   101.2370 hc         1 1XR       0.043700
     18 H2         100.6890   102.8470   102.8400 hc         1 1XR       0.043700
     19 H4         100.7580   100.9310   100.4620 h1         1 1XR       0.070700
     20 H5         100.8720    98.5380   104.4320 ha         1 1XR       0.148000
     21 H10         98.1800   104.2610   101.3030 hc         1 1XR       0.037700
     22 H11         99.7940   104.3250   100.5960 hc         1 1XR       0.037700
     23 H12         98.3890   104.7090    99.6130 hc         1 1XR       0.037700
     24 H16        100.5230   102.5440    98.9270 hc         1 1XR       0.037700
     25 H17         99.4110   101.2480    98.4670 hc         1 1XR       0.037700
     26 H18         99.1260   102.9010    97.9260 hc         1 1XR       0.037700
     27 H15         96.4950   102.4910   100.4970 hc         1 1XR       0.037700
     28 H13         96.8120   103.0040    98.8400 hc         1 1XR       0.037700
     29 H14         96.9960   101.3030    99.2910 hc         1 1XR       0.037700
     30 H6         104.6710    97.1110   103.0620 ha         1 1XR       0.131000
     31 H7         104.4360    98.4690   101.0150 ha         1 1XR       0.121000
     32 H8         102.4630    99.8680   100.6680 ha         1 1XR       0.119000
     33 H9          98.4260   101.9050   101.9110 hn         1 1XR       0.436000
     34 C10         98.6100   102.5770    99.9920 c3         1 1XR       0.211200
@<TRIPOS>BOND
     1     1     2 1   
     2     1    16 1   
     3     1    17 1   
     4     1    18 1   
     5     2     3 1   
     6     2    13 1   
     7     2    19 1   
     8     3     4 1   
     9     3    14 2   
    10     4     5 ar  
    11     4    12 ar  
    12     5     6 ar  
    13     5    20 1   
    14     6    10 ar  
    15     6    15 1   
    16     7    21 1   
    17     7    22 1   
    18     7    23 1   
    19     7    34 1   
    20     8    24 1   
    21     8    25 1   
    22     8    26 1   
    23     8    34 1   
    24     9    27 1   
    25     9    28 1   
    26     9    29 1   
    27     9    34 1   
    28    10    11 ar  
    29    10    30 1   
    30    11    12 ar  
    31    11    31 1   
    32    12    32 1   
    33    13    33 1   
    34    13    34 1   
@<TRIPOS>SUBSTRUCTURE
     1 1XR         1 TEMP              0 ****  ****    0 ROOT
