@<TRIPOS>MOLECULE
1XR
   34    34     1     0     0
SMALL
No Charge or Current Charge


@<TRIPOS>ATOM
      1 C1           0.0000     0.0000     0.0000 c3         1 1XR      -0.129100
      2 C2           0.0000     0.0000     0.0000 c3         1 1XR       0.106500
      3 C3           0.0000     0.0000     0.0000 c          1 1XR       0.583700
      4 C4       45368269659173823300171674440525642111741564761463411709112816273520156480743043317131530973183222040876684137352508867383504535521500704880841062134019260416.0000     0.0000     0.0000 ca         1 1XR      -0.161600
      5 C5           0.0000     0.0000     0.0000 ca         1 1XR      -0.054000
      6 C6           0.0000     0.0000     0.0000 ca         1 1XR       0.106000
      7 C11          0.0000     0.0000     0.0000 c3         1 1XR      -0.097767
      8 C13          0.0000     0.0000     0.0000 c3         1 1XR      -0.097767
      9 C12          0.0000     0.0000     0.0000 c3         1 1XR      -0.097767
     10 C7           0.0000     0.0000     0.0000 ca         1 1XR      -0.081000
     11 C8           0.0000     0.0000     0.0000 ca         1 1XR      -0.116000
     12 C9           0.0000     0.0000     0.0000 ca         1 1XR      -0.075000
     13 N1           0.0000     0.0000     0.0000 n7         1 1XR      -0.891400
     14 O1           0.0000     0.0000     0.0000 o          1 1XR      -0.507100
     15 Cl1          0.0000     0.0000     0.0000 cl         1 1XR      -0.196000
     16 H1           0.0000     0.0000     0.0000 hc         1 1XR       0.043700
     17 H3           0.0000     0.0000     0.0000 hc         1 1XR       0.043700
     18 H2           0.0000     0.0000     0.0000 hc         1 1XR       0.043700
     19 H4           0.0000     0.0000     0.0000 h1         1 1XR       0.070700
     20 H5           0.0000     0.0000     0.0000 ha         1 1XR       0.148000
     21 H10          0.0000     0.0000     0.0000 hc         1 1XR       0.037700
     22 H11          0.0000     0.0000     0.0000 hc         1 1XR       0.037700
     23 H12          0.0000     0.0000     0.0000 hc         1 1XR       0.037700
     24 H16          0.0000     0.0000     0.0000 hc         1 1XR       0.037700
     25 H17          0.0000     0.0000     0.0000 hc         1 1XR       0.037700
     26 H18          0.0000     0.0000     0.0000 hc         1 1XR       0.037700
     27 H15          0.0000     0.0000     0.0000 hc         1 1XR       0.037700
     28 H13          0.0000     0.0000     0.0000 hc         1 1XR       0.037700
     29 H14          0.0000     0.0000     0.0000 hc         1 1XR       0.037700
     30 H6           0.0000     0.0000     0.0000 ha         1 1XR       0.131000
     31 H7           0.0000     0.0000     0.0000 ha         1 1XR       0.121000
     32 H8           0.0000     0.0000     0.0000 ha         1 1XR       0.119000
     33 H9           0.0000     0.0000     0.0000 hn         1 1XR       0.436000
     34 C10          0.0000     0.0000     0.0000 c3         1 1XR       0.211200
@<TRIPOS>BOND
     1     1     2 1   
     2     1    16 1   
     3     1    17 1   
     4     1    18 1   
     5     2     3 1   
     6     2    13 1   
     7     2    19 1   
     8     3     4 1   
     9     3    14 2   
    10     4     5 ar  
    11     4    12 ar  
    12     5     6 ar  
    13     5    20 1   
    14     6    10 ar  
    15     6    15 1   
    16     7    21 1   
    17     7    22 1   
    18     7    23 1   
    19     7    34 1   
    20     8    24 1   
    21     8    25 1   
    22     8    26 1   
    23     8    34 1   
    24     9    27 1   
    25     9    28 1   
    26     9    29 1   
    27     9    34 1   
    28    10    11 ar  
    29    10    30 1   
    30    11    12 ar  
    31    11    31 1   
    32    12    32 1   
    33    13    33 1   
    34    13    34 1   
@<TRIPOS>SUBSTRUCTURE
     1 1XR         1 TEMP              0 ****  ****    0 ROOT
