@<TRIPOS>MOLECULE
1XS
   21    22     1     0     0
SMALL
abcg2


@<TRIPOS>ATOM
      1 O01         15.5960    12.9150    20.2360 os         1 1XS      -0.223000
      2 C02         16.7970    13.0180    19.5830 cc         1 1XS       0.156500
      3 C03         15.6870    11.8950    21.1360 cc         1 1XS       0.098500
      4 C04         17.6460    12.0650    20.0680 cd         1 1XS      -0.222000
      5 C05         16.9370    11.3400    21.0650 cd         1 1XS      -0.154000
      6 C06         16.9530    14.0680    18.5210 c          1 1XS       0.618500
      7 C07         14.5160    11.6110    21.9470 ca         1 1XS      -0.071500
      8 C08         13.4040    10.2330    23.5920 ca         1 1XS       0.079000
      9 C09         14.5170    10.5150    22.8190 ca         1 1XS      -0.092000
     10 C10         12.2800    11.0460    23.5040 ca         1 1XS       0.142000
     11 O11         15.9450    14.7640    18.2480 o          1 1XS      -0.694500
     12 C12         13.3710    12.4160    21.8760 ca         1 1XS      -0.073000
     13 C13         12.2570    12.1350    22.6530 ca         1 1XS      -0.142000
     14 CL1         13.4000     8.8660    24.6660 cl         1 1XS      -0.209000
     15 O15         18.0960    14.1400    18.0030 o          1 1XS      -0.694500
     16 F16         11.1960    10.7680    24.2560 f          1 1XS      -0.182000
     17 H041        18.6600    11.9040    19.7440 ha         1 1XS       0.142000
     18 H051        17.3060    10.5180    21.6570 ha         1 1XS       0.114000
     19 H091        15.3830     9.8720    22.8960 ha         1 1XS       0.129000
     20 H121        13.3530    13.2670    21.2100 ha         1 1XS       0.151000
     21 H131        11.3690    12.7510    22.6070 ha         1 1XS       0.127000
@<TRIPOS>BOND
     1     1     2 1   
     2     1     3 1   
     3     2     4 2   
     4     2     6 1   
     5     3     5 2   
     6     3     7 1   
     7     4     5 1   
     8     4    17 1   
     9     5    18 1   
    10     6    11 1   
    11     6    15 1   
    12     7     9 ar  
    13     7    12 ar  
    14     8     9 ar  
    15     8    10 ar  
    16     8    14 1   
    17     9    19 1   
    18    10    13 ar  
    19    10    16 1   
    20    12    13 ar  
    21    12    20 1   
    22    13    21 1   
@<TRIPOS>SUBSTRUCTURE
     1 1XS         1 TEMP              0 ****  ****    0 ROOT
