@<TRIPOS>MOLECULE
1XS
   21    22     1     0     0
SMALL
No Charge or Current Charge


@<TRIPOS>ATOM
      1 O01         15.5460    13.0400    20.1770 os         1 1XS      -0.223000
      2 C02         16.7800    13.0710    19.5510 cc         1 1XS       0.156500
      3 C03         15.6000    11.9940    21.0680 cc         1 1XS       0.098500
      4 C04         17.5740    12.0620    20.0500 cd         1 1XS      -0.222000
      5 C05         16.8200    11.3710    21.0220 cd         1 1XS      -0.154000
      6 C06         17.1520    14.0720    18.4920 c          1 1XS       0.618500
      7 C07         14.4690    11.6350    21.9330 ca         1 1XS      -0.071500
      8 C08         13.4430    10.2150    23.6450 ca         1 1XS       0.079000
      9 C09         14.5380    10.5400    22.8260 ca         1 1XS      -0.092000
     10 C10         12.2650    10.9820    23.5810 ca         1 1XS       0.142000
     11 O11         16.3290    14.9140    18.1540 o          1 1XS      -0.694500
     12 C12         13.2790    12.3950    21.8800 ca         1 1XS      -0.073000
     13 C13         12.1830    12.0700    22.7000 ca         1 1XS      -0.142000
     14 Cl1         13.5660     8.8420    24.7460 cl         1 1XS      -0.209000
     15 O15         18.2700    14.0220    17.9930 o          1 1XS      -0.694500
     16 F16         11.2040    10.6790    24.3640 f          1 1XS      -0.182000
     17 H041        18.5930    11.8460    19.7450 ha         1 1XS       0.142000
     18 H051        17.1500    10.5210    21.6090 ha         1 1XS       0.114000
     19 H091        15.4350     9.9320    22.8940 ha         1 1XS       0.129000
     20 H121        13.2000    13.2430    21.2020 ha         1 1XS       0.151000
     21 H131        11.2720    12.6610    22.6520 ha         1 1XS       0.127000
@<TRIPOS>BOND
     1     1     2 1   
     2     1     3 1   
     3     2     4 2   
     4     2     6 1   
     5     3     5 2   
     6     3     7 1   
     7     4     5 1   
     8     4    17 1   
     9     5    18 1   
    10     6    11 1   
    11     6    15 1   
    12     7     9 ar  
    13     7    12 ar  
    14     8     9 ar  
    15     8    10 ar  
    16     8    14 1   
    17     9    19 1   
    18    10    13 ar  
    19    10    16 1   
    20    12    13 ar  
    21    12    20 1   
    22    13    21 1   
@<TRIPOS>SUBSTRUCTURE
     1 1XS         1 TEMP              0 ****  ****    0 ROOT
