@<TRIPOS>MOLECULE
1XT
   57    61     1     0     0
SMALL
bcc


@<TRIPOS>ATOM
      1 C01         -9.9760     0.3850     1.4950 c          1 1XT       0.839100
      2 O02         -9.5780     1.2480     2.2960 o          1 1XT      -0.803300
      3 O03        -11.1080    -0.1230     1.4060 o          1 1XT      -0.803300
      4 C04         -8.9770    -0.1260     0.4990 cc         1 1XT       0.242200
      5 C05         -9.0730    -1.0570    -0.4880 cd         1 1XT      -0.308300
      6 C06         -7.8000    -1.1260    -1.1090 cd         1 1XT      -0.257300
      7 C07         -7.0080    -0.2270    -0.4530 cc         1 1XT       0.217200
      8 O08         -7.7210     0.3750     0.5170 os         1 1XT      -0.293800
      9 C09         -5.6180     0.1630    -0.6170 ca         1 1XT      -0.065500
     10 C10         -5.0480     1.1810     0.1530 ca         1 1XT      -0.132500
     11 C11         -3.7210     1.5360    -0.0260 ca         1 1XT      -0.106000
     12 C12         -2.9280     0.8950    -0.9720 ca         1 1XT      -0.119300
     13 C13         -3.4960    -0.1190    -1.7380 ca         1 1XT      -0.106000
     14 C14         -4.8200    -0.4810    -1.5670 ca         1 1XT      -0.132500
     15 C15         -1.4840     1.2570    -1.1290 c3         1 1XT       0.194700
     16 O16         -0.7480     0.4640    -0.2040 os         1 1XT      -0.319900
     17 C17          0.5890     0.6080    -0.1500 ca         1 1XT       0.135100
     18 C18          1.3250     1.4740    -0.9550 ca         1 1XT      -0.199000
     19 C19          2.7060     1.5300    -0.8200 ca         1 1XT      -0.083000
     20 C20          3.3810     0.7440     0.1070 ca         1 1XT      -0.035000
     21 C21          2.6270    -0.1110     0.9170 ca         1 1XT      -0.083000
     22 C22          1.2550    -0.1810     0.7910 ca         1 1XT      -0.199000
     23 C23          4.8340     0.8620     0.2380 cc         1 1XT      -0.098300
     24 C24          5.6210     1.9890     0.2780 cd         1 1XT      -0.247300
     25 C25          6.9330     1.5250     0.4880 cd         1 1XT       0.269800
     26 N26          6.9520     0.2060     0.5670 nc         1 1XT      -0.489800
     27 N27          5.6880    -0.1870     0.4110 na         1 1XT       0.137300
     28 C28          5.3980    -1.5710     0.3750 ca         1 1XT       0.051800
     29 C29          4.6320    -2.0920    -0.6560 ca         1 1XT      -0.137000
     30 C30          4.3250    -3.4500    -0.6930 ca         1 1XT      -0.075300
     31 C31          4.8190    -4.2710     0.3170 ca         1 1XT      -0.149000
     32 C32          5.6040    -3.7490     1.3360 ca         1 1XT      -0.130000
     33 C33          5.8950    -2.3950     1.3770 ca         1 1XT      -0.118000
     34 C34          3.5050    -4.0070    -1.8190 c3         1 1XT      -0.041800
     35 C35          8.1850     2.3560     0.6150 c          1 1XT       0.840100
     36 O36          9.2540     1.7460     0.7950 o          1 1XT      -0.817300
     37 O37          8.0160     3.5870     0.5250 o          1 1XT      -0.817300
     38 H2          -9.9510    -1.6280    -0.7420 ha         1 1XT       0.154000
     39 H3          -7.5130    -1.7550    -1.9370 ha         1 1XT       0.130000
     40 H4          -5.6380     1.7040     0.8930 ha         1 1XT       0.142500
     41 H5          -3.3000     2.3310     0.5780 ha         1 1XT       0.123000
     42 H6          -2.8960    -0.6320    -2.4800 ha         1 1XT       0.123000
     43 H7          -5.2340    -1.2740    -2.1760 ha         1 1XT       0.142500
     44 H8          -1.1460     1.0620    -2.1510 h1         1 1XT       0.033200
     45 H9          -1.3310     2.3210    -0.9210 h1         1 1XT       0.033200
     46 H10          0.8500     2.1030    -1.6950 ha         1 1XT       0.133500
     47 H11          3.2650     2.1980    -1.4630 ha         1 1XT       0.137000
     48 H12          3.1120    -0.7210     1.6680 ha         1 1XT       0.137000
     49 H13          0.6840    -0.8450     1.4280 ha         1 1XT       0.133500
     50 H14          5.2860     3.0100     0.1990 ha         1 1XT       0.165000
     51 H15          4.2660    -1.4400    -1.4410 ha         1 1XT       0.145000
     52 H16          4.5880    -5.3290     0.3060 ha         1 1XT       0.116000
     53 H17          5.9830    -4.4000     2.1130 ha         1 1XT       0.121000
     54 H18          6.4910    -1.9800     2.1790 ha         1 1XT       0.158000
     55 H19          4.0900    -4.0600    -2.7400 hc         1 1XT       0.036700
     56 H20          3.1530    -5.0130    -1.5960 hc         1 1XT       0.036700
     57 H21          2.6350    -3.3840    -2.0270 hc         1 1XT       0.036700
@<TRIPOS>BOND
     1     1     2 1   
     2     1     3 1   
     3     1     4 1   
     4     4     5 2   
     5     4     8 1   
     6     5     6 1   
     7     5    38 1   
     8     6     7 2   
     9     6    39 1   
    10     7     8 1   
    11     7     9 1   
    12     9    10 ar  
    13     9    14 ar  
    14    10    11 ar  
    15    10    40 1   
    16    11    12 ar  
    17    11    41 1   
    18    12    13 ar  
    19    12    15 1   
    20    13    14 ar  
    21    13    42 1   
    22    14    43 1   
    23    15    16 1   
    24    15    44 1   
    25    15    45 1   
    26    16    17 1   
    27    17    18 ar  
    28    17    22 ar  
    29    18    19 ar  
    30    18    46 1   
    31    19    20 ar  
    32    19    47 1   
    33    20    21 ar  
    34    20    23 1   
    35    21    22 ar  
    36    21    48 1   
    37    22    49 1   
    38    23    24 2   
    39    23    27 1   
    40    24    25 1   
    41    24    50 1   
    42    25    26 2   
    43    25    35 1   
    44    26    27 1   
    45    27    28 1   
    46    28    29 ar  
    47    28    33 ar  
    48    29    30 ar  
    49    29    51 1   
    50    30    31 ar  
    51    30    34 1   
    52    31    32 ar  
    53    31    52 1   
    54    32    33 ar  
    55    32    53 1   
    56    33    54 1   
    57    34    55 1   
    58    34    56 1   
    59    34    57 1   
    60    35    36 1   
    61    35    37 1   
@<TRIPOS>SUBSTRUCTURE
     1 1XT         1 TEMP              0 ****  ****    0 ROOT
