@<TRIPOS>MOLECULE
1XT
   57    61     1     0     0
SMALL
No Charge or Current Charge


@<TRIPOS>ATOM
      1 C01        -10.4070     0.3080     1.3040 c          1 1XT       0.628500
      2 O02        -10.2700     1.1540     2.1790 o          1 1XT      -0.698000
      3 O03        -11.4780    -0.2540     1.1080 o          1 1XT      -0.698000
      4 C04         -9.2270    -0.0520     0.4470 cc         1 1XT       0.132500
      5 C05         -9.1980    -0.9740    -0.5760 cd         1 1XT      -0.225000
      6 C06         -7.8870    -0.9830    -1.1000 cd         1 1XT      -0.174000
      7 C07         -7.1810    -0.0640    -0.3690 cc         1 1XT       0.107500
      8 O08         -7.9750     0.5230     0.5870 os         1 1XT      -0.205000
      9 C09         -5.7630     0.2840    -0.5430 ca         1 1XT      -0.065500
     10 C10         -5.1680     1.2440     0.3040 ca         1 1XT      -0.114500
     11 C11         -3.8150     1.5930     0.1570 ca         1 1XT      -0.088000
     12 C12         -3.0290     0.9900    -0.8410 ca         1 1XT      -0.119300
     13 C13         -3.6140     0.0310    -1.6880 ca         1 1XT      -0.088000
     14 C14         -4.9680    -0.3190    -1.5420 ca         1 1XT      -0.114500
     15 C15         -1.5630     1.3690    -1.0030 c3         1 1XT       0.217900
     16 O16         -0.7710     0.4870    -0.1900 os         1 1XT      -0.343100
     17 C17          0.6040     0.5810    -0.1290 ca         1 1XT       0.135100
     18 C18          1.3350     1.5470    -0.8530 ca         1 1XT      -0.181000
     19 C19          2.7370     1.5920    -0.7500 ca         1 1XT      -0.065000
     20 C20          3.4290     0.6760     0.0690 ca         1 1XT      -0.035000
     21 C21          2.6890    -0.2810     0.7940 ca         1 1XT      -0.065000
     22 C22          1.2880    -0.3270     0.6920 ca         1 1XT      -0.181000
     23 C23          4.8910     0.7310     0.1640 cc         1 1XT      -0.149000
     24 C24          5.6270     1.8790     0.1310 cd         1 1XT      -0.164000
     25 C25          6.9940     1.5250     0.3360 cd         1 1XT       0.204500
     26 N26          7.1390     0.2040     0.4980 nc         1 1XT      -0.489800
     27 N27          5.8410    -0.2490     0.4180 na         1 1XT       0.188000
     28 C28          5.5840    -1.6240     0.4130 ca         1 1XT       0.051800
     29 C29          4.8780    -2.2150    -0.6560 ca         1 1XT      -0.119000
     30 C30          4.6040    -3.5960    -0.6580 ca         1 1XT      -0.075300
     31 C31          5.0510    -4.3920     0.4120 ca         1 1XT      -0.131000
     32 C32          5.7630    -3.8140     1.4760 ca         1 1XT      -0.112000
     33 C33          6.0290    -2.4340     1.4770 ca         1 1XT      -0.100000
     34 C34          3.8350    -4.2190    -1.8130 c3         1 1XT      -0.041800
     35 C35          8.1480     2.5160     0.3670 c          1 1XT       0.629500
     36 O36          9.2920     2.1120     0.5510 o          1 1XT      -0.712000
     37 O37          7.9060     3.7070     0.2070 o          1 1XT      -0.712000
     38 H2         -10.0340    -1.5790    -0.9120 ha         1 1XT       0.136000
     39 H3          -7.5240    -1.5980    -1.9160 ha         1 1XT       0.112000
     40 H4          -5.7540     1.7260     1.0830 ha         1 1XT       0.124500
     41 H5          -3.3760     2.3340     0.8220 ha         1 1XT       0.105000
     42 H6          -3.0170    -0.4470    -2.4630 ha         1 1XT       0.105000
     43 H7          -5.3870    -1.0630    -2.2130 ha         1 1XT       0.124500
     44 H8          -1.2770     1.2810    -2.0590 h1         1 1XT       0.033200
     45 H9          -1.4180     2.4120    -0.6950 h1         1 1XT       0.033200
     46 H10          0.8380     2.2650    -1.4980 ha         1 1XT       0.115500
     47 H11          3.2870     2.3350    -1.3220 ha         1 1XT       0.119000
     48 H12          3.1950    -0.9850     1.4490 ha         1 1XT       0.119000
     49 H13          0.7300    -1.0690     1.2560 ha         1 1XT       0.115500
     50 H14          5.2510     2.8860    -0.0100 ha         1 1XT       0.147000
     51 H15          4.5380    -1.5970    -1.4840 ha         1 1XT       0.127000
     52 H16          4.8500    -5.4610     0.4200 ha         1 1XT       0.098000
     53 H17          6.1070    -4.4340     2.3010 ha         1 1XT       0.103000
     54 H18          6.5770    -1.9900     2.3050 ha         1 1XT       0.140000
     55 H19          4.5080    -4.4640    -2.6430 hc         1 1XT       0.036700
     56 H20          3.3290    -5.1430    -1.5070 hc         1 1XT       0.036700
     57 H21          3.0670    -3.5350    -2.1940 hc         1 1XT       0.036700
@<TRIPOS>BOND
     1     1     2 1   
     2     1     3 1   
     3     1     4 1   
     4     4     5 2   
     5     4     8 1   
     6     5     6 1   
     7     5    38 1   
     8     6     7 2   
     9     6    39 1   
    10     7     8 1   
    11     7     9 1   
    12     9    10 ar  
    13     9    14 ar  
    14    10    11 ar  
    15    10    40 1   
    16    11    12 ar  
    17    11    41 1   
    18    12    13 ar  
    19    12    15 1   
    20    13    14 ar  
    21    13    42 1   
    22    14    43 1   
    23    15    16 1   
    24    15    44 1   
    25    15    45 1   
    26    16    17 1   
    27    17    18 ar  
    28    17    22 ar  
    29    18    19 ar  
    30    18    46 1   
    31    19    20 ar  
    32    19    47 1   
    33    20    21 ar  
    34    20    23 1   
    35    21    22 ar  
    36    21    48 1   
    37    22    49 1   
    38    23    24 2   
    39    23    27 1   
    40    24    25 1   
    41    24    50 1   
    42    25    26 2   
    43    25    35 1   
    44    26    27 1   
    45    27    28 1   
    46    28    29 ar  
    47    28    33 ar  
    48    29    30 ar  
    49    29    51 1   
    50    30    31 ar  
    51    30    34 1   
    52    31    32 ar  
    53    31    52 1   
    54    32    33 ar  
    55    32    53 1   
    56    33    54 1   
    57    34    55 1   
    58    34    56 1   
    59    34    57 1   
    60    35    36 1   
    61    35    37 1   
@<TRIPOS>SUBSTRUCTURE
     1 1XT         1 TEMP              0 ****  ****    0 ROOT
