@<TRIPOS>MOLECULE
1XU
   55    59     1     0     0
SMALL
bcc


@<TRIPOS>ATOM
      1 C01          5.3010     2.8390    -3.5720 cc         1 1XU       0.311200
      2 C02          4.2100     1.9730    -3.7490 cc         1 1XU      -0.293300
      3 C03          4.1700     1.2160    -2.6000 cd         1 1XU      -0.030300
      4 N04          5.2090     1.6480    -1.8330 na         1 1XU       0.168300
      5 N05          5.8960     2.6350    -2.4170 nd         1 1XU      -0.508800
      6 C06          5.6580     1.1400    -0.5980 ca         1 1XU       0.024800
      7 C07          3.1930     0.2030    -2.1940 ca         1 1XU      -0.027000
      8 C08          5.7710    -0.2290    -0.3970 ca         1 1XU      -0.121000
      9 C09          6.2060    -0.7060     0.8260 ca         1 1XU      -0.106000
     10 C10          6.5480     0.1740     1.8410 ca         1 1XU       0.023400
     11 C11          6.4510     1.5450     1.6250 ca         1 1XU       0.030400
     12 C12          6.0000     2.0300     0.4090 ca         1 1XU      -0.100000
     13 CL1          6.8740     2.6600     2.8650 cl         1 1XU      -0.070400
     14 CL2          7.0970    -0.4400     3.3510 cl         1 1XU      -0.073400
     15 C15          2.6090     0.2190    -0.9260 ca         1 1XU      -0.110500
     16 C16          1.6670    -0.7320    -0.5780 ca         1 1XU      -0.113000
     17 C17          1.2780    -1.7150    -1.4860 ca         1 1XU      -0.103300
     18 C18          1.8490    -1.7220    -2.7520 ca         1 1XU      -0.113000
     19 C19          2.8020    -0.7760    -3.1030 ca         1 1XU      -0.110500
     20 C20          0.2520    -2.7400    -1.0950 c3         1 1XU       0.130300
     21 N21         -1.0410    -2.1110    -0.9040 ns         1 1XU      -0.461900
     22 C22         -2.0370    -2.6410    -0.2160 cs         1 1XU       0.478000
     23 C23         -3.2380    -1.7730    -0.1060 ca         1 1XU      -0.154600
     24 C24         -3.2130    -0.6790     0.7540 ca         1 1XU      -0.099000
     25 C25         -4.3220     0.1310     0.9170 ca         1 1XU      -0.120000
     26 C26         -5.4950    -0.1280     0.2060 ca         1 1XU      -0.034500
     27 C27         -5.5210    -1.2120    -0.6740 ca         1 1XU      -0.138000
     28 C28         -4.4080    -2.0170    -0.8190 ca         1 1XU       0.066400
     29 S29         -1.9890    -4.1150     0.5390 s          1 1XU      -0.573400
     30 C30         -6.6770     0.7000     0.3560 cc         1 1XU       0.193200
     31 C31         -7.9090     0.6690    -0.2320 cd         1 1XU      -0.234300
     32 C32         -8.6420     1.7440     0.3320 cd         1 1XU      -0.308300
     33 C33         -7.8150     2.3570     1.2220 cc         1 1XU       0.258200
     34 O34         -6.6230     1.7200     1.2330 os         1 1XU      -0.294800
     35 C35         -8.0150     3.5390     2.1250 c          1 1XU       0.837100
     36 O36         -7.0540     3.8650     2.8420 o          1 1XU      -0.795800
     37 O37         -9.1400     4.0650     2.0500 o          1 1XU      -0.795800
     38 CL3         -4.4770    -3.3340    -1.9380 cl         1 1XU      -0.116400
     39 H1           5.6680     3.5990    -4.2450 h4         1 1XU       0.040100
     40 H2           3.5220     1.9280    -4.5770 ha         1 1XU       0.169000
     41 H3           5.5340    -0.9280    -1.1870 ha         1 1XU       0.156000
     42 H4           6.2950    -1.7710     0.9890 ha         1 1XU       0.155000
     43 H5           5.9120     3.0960     0.2490 ha         1 1XU       0.173000
     44 H6           2.8770     0.9830    -0.2070 ha         1 1XU       0.141500
     45 H7           1.2290    -0.7050     0.4130 ha         1 1XU       0.142500
     46 H8           1.5560    -2.4760    -3.4720 ha         1 1XU       0.142500
     47 H9           3.2490    -0.8060    -4.0880 ha         1 1XU       0.141500
     48 H10          0.1740    -3.5230    -1.8530 h1         1 1XU       0.077200
     49 H11          0.5290    -3.2280    -0.1590 h1         1 1XU       0.077200
     50 H12         -1.2060    -1.2320    -1.3760 hn         1 1XU       0.325500
     51 H13         -2.3120    -0.4680     1.3150 ha         1 1XU       0.131000
     52 H14         -4.2630     0.9660     1.6020 ha         1 1XU       0.169000
     53 H15         -6.4100    -1.4310    -1.2510 ha         1 1XU       0.150000
     54 H16         -8.2540    -0.0330    -0.9750 ha         1 1XU       0.134000
     55 H17         -9.6560     2.0280     0.1050 ha         1 1XU       0.161000
@<TRIPOS>BOND
     1     1     2 1   
     2     1     5 2   
     3     1    39 1   
     4     2     3 2   
     5     2    40 1   
     6     3     4 1   
     7     3     7 1   
     8     4     5 1   
     9     4     6 1   
    10     6     8 ar  
    11     6    12 ar  
    12     7    15 ar  
    13     7    19 ar  
    14     8     9 ar  
    15     8    41 1   
    16     9    10 ar  
    17     9    42 1   
    18    10    11 ar  
    19    10    14 1   
    20    11    12 ar  
    21    11    13 1   
    22    12    43 1   
    23    15    16 ar  
    24    15    44 1   
    25    16    17 ar  
    26    16    45 1   
    27    17    18 ar  
    28    17    20 1   
    29    18    19 ar  
    30    18    46 1   
    31    19    47 1   
    32    20    21 1   
    33    20    48 1   
    34    20    49 1   
    35    21    22 1   
    36    21    50 1   
    37    22    23 1   
    38    22    29 2   
    39    23    24 ar  
    40    23    28 ar  
    41    24    25 ar  
    42    24    51 1   
    43    25    26 ar  
    44    25    52 1   
    45    26    27 ar  
    46    26    30 1   
    47    27    28 ar  
    48    27    53 1   
    49    28    38 1   
    50    30    31 2   
    51    30    34 1   
    52    31    32 1   
    53    31    54 1   
    54    32    33 2   
    55    32    55 1   
    56    33    34 1   
    57    33    35 1   
    58    35    36 1   
    59    35    37 1   
@<TRIPOS>SUBSTRUCTURE
     1 1XU         1 TEMP              0 ****  ****    0 ROOT
