@<TRIPOS>MOLECULE
1XU
   55    59     1     0     0
SMALL
No Charge or Current Charge


@<TRIPOS>ATOM
      1 C01          5.5060     2.6800    -3.7000 cc         1 1XU       0.245900
      2 C02          4.4200     1.7890    -3.7560 cc         1 1XU      -0.210000
      3 C03          4.2560     1.2410    -2.5140 cd         1 1XU      -0.081000
      4 N04          5.3180     1.8450    -1.8010 na         1 1XU       0.219000
      5 N05          6.1010     2.7260    -2.5280 nd         1 1XU      -0.508800
      6 C06          5.6780     1.3210    -0.5600 ca         1 1XU       0.024800
      7 C07          3.2590     0.2120    -2.1130 ca         1 1XU      -0.027000
      8 C08          6.1940     0.0130    -0.4570 ca         1 1XU      -0.103000
      9 C09          6.5610    -0.5060     0.7970 ca         1 1XU      -0.088000
     10 C10          6.4250     0.2820     1.9530 ca         1 1XU       0.115000
     11 C11          5.9240     1.5970     1.8520 ca         1 1XU       0.122000
     12 C12          5.5570     2.1140     0.5980 ca         1 1XU      -0.082000
     13 Cl1          5.7470     2.6160     3.2810 cl         1 1XU      -0.162000
     14 Cl2          6.8920    -0.3980     3.5120 cl         1 1XU      -0.165000
     15 C15          2.9550    -0.0820    -0.7620 ca         1 1XU      -0.092500
     16 C16          2.0030    -1.0600    -0.4300 ca         1 1XU      -0.095000
     17 C17          1.3230    -1.7640    -1.4370 ca         1 1XU      -0.103300
     18 C18          1.5970    -1.4680    -2.7820 ca         1 1XU      -0.095000
     19 C19          2.5490    -0.4880    -3.1140 ca         1 1XU      -0.092500
     20 C20          0.2870    -2.8160    -1.0750 c3         1 1XU       0.130300
     21 N21         -1.0320    -2.2130    -0.9010 ns         1 1XU      -0.394900
     22 C22         -2.1910    -2.8730    -0.5910 cs         1 1XU       0.411000
     23 C23         -3.3650    -1.9500    -0.3360 ca         1 1XU      -0.154600
     24 C24         -3.1450    -0.6830     0.2570 ca         1 1XU      -0.081000
     25 C25         -4.2120     0.1900     0.5240 ca         1 1XU      -0.102000
     26 C26         -5.5340    -0.1680     0.2050 ca         1 1XU      -0.034500
     27 C27         -5.7600    -1.4210    -0.3980 ca         1 1XU      -0.120000
     28 C28         -4.6980    -2.3020    -0.6670 ca         1 1XU       0.158000
     29 S29         -2.1970    -4.5140    -0.2360 s          1 1XU      -0.573400
     30 C30         -6.6350     0.7620     0.4910 cc         1 1XU       0.083500
     31 C31         -7.9730     0.5000     0.3600 cd         1 1XU      -0.151000
     32 C32         -8.6410     1.6790     0.7560 cd         1 1XU      -0.225000
     33 C33         -7.6780     2.6000     1.1100 cc         1 1XU       0.148500
     34 O34         -6.4220     2.0400     0.9530 os         1 1XU      -0.206000
     35 C35         -7.9080     4.0020     1.5990 c          1 1XU       0.626500
     36 O36         -6.9400     4.7000     1.8760 o          1 1XU      -0.690500
     37 O37         -9.0570     4.4130     1.7080 o          1 1XU      -0.690500
     38 Cl3         -5.1040    -3.7950    -1.5160 cl         1 1XU      -0.208000
     39 H1           5.8950     3.2860    -4.5070 h4         1 1XU       0.040100
     40 H2           3.8280     1.6110    -4.6470 ha         1 1XU       0.151000
     41 H3           6.3030    -0.6010    -1.3490 ha         1 1XU       0.138000
     42 H4           6.9510    -1.5180     0.8740 ha         1 1XU       0.137000
     43 H5           5.1730     3.1290     0.5250 ha         1 1XU       0.155000
     44 H6           3.4200     0.4610     0.0520 ha         1 1XU       0.123500
     45 H7           1.7860    -1.2620     0.6180 ha         1 1XU       0.124500
     46 H8           1.0730    -1.9960    -3.5760 ha         1 1XU       0.124500
     47 H9           2.7420    -0.2940    -4.1650 ha         1 1XU       0.123500
     48 H10          0.2320    -3.5760    -1.8660 h1         1 1XU       0.077200
     49 H11          0.5770    -3.3190    -0.1420 h1         1 1XU       0.077200
     50 H12         -1.1060    -1.2140    -1.0510 hn         1 1XU       0.325500
     51 H13         -2.1440    -0.3720     0.5470 ha         1 1XU       0.113000
     52 H14         -4.0040     1.1500     0.9910 ha         1 1XU       0.151000
     53 H15         -6.7630    -1.7210    -0.6830 ha         1 1XU       0.132000
     54 H16         -8.4370    -0.4220     0.0270 ha         1 1XU       0.116000
     55 H17         -9.7140     1.8400     0.7810 ha         1 1XU       0.143000
@<TRIPOS>BOND
     1     1     2 1   
     2     1     5 2   
     3     1    39 1   
     4     2     3 2   
     5     2    40 1   
     6     3     4 1   
     7     3     7 1   
     8     4     5 1   
     9     4     6 1   
    10     6     8 ar  
    11     6    12 ar  
    12     7    15 ar  
    13     7    19 ar  
    14     8     9 ar  
    15     8    41 1   
    16     9    10 ar  
    17     9    42 1   
    18    10    11 ar  
    19    10    14 1   
    20    11    12 ar  
    21    11    13 1   
    22    12    43 1   
    23    15    16 ar  
    24    15    44 1   
    25    16    17 ar  
    26    16    45 1   
    27    17    18 ar  
    28    17    20 1   
    29    18    19 ar  
    30    18    46 1   
    31    19    47 1   
    32    20    21 1   
    33    20    48 1   
    34    20    49 1   
    35    21    22 1   
    36    21    50 1   
    37    22    23 1   
    38    22    29 2   
    39    23    24 ar  
    40    23    28 ar  
    41    24    25 ar  
    42    24    51 1   
    43    25    26 ar  
    44    25    52 1   
    45    26    27 ar  
    46    26    30 1   
    47    27    28 ar  
    48    27    53 1   
    49    28    38 1   
    50    30    31 2   
    51    30    34 1   
    52    31    32 1   
    53    31    54 1   
    54    32    33 2   
    55    32    55 1   
    56    33    34 1   
    57    33    35 1   
    58    35    36 1   
    59    35    37 1   
@<TRIPOS>SUBSTRUCTURE
     1 1XU         1 TEMP              0 ****  ****    0 ROOT
