@<TRIPOS>MOLECULE
1XV
   86    91     1     0     0
SMALL
bcc


@<TRIPOS>ATOM
      1 C1           8.5880     2.5250     0.8150 ca         1 1XV      -0.112500
      2 C2           9.0570     1.9190    -1.4510 ca         1 1XV      -0.112500
      3 C3          -0.2780    -1.2230     1.5100 ca         1 1XV      -0.035000
      4 C4          -0.5590    -2.5140    -0.4760 ca         1 1XV      -0.035000
      5 CL4          8.7800     5.8940    -1.3080 cl         1 1XV      -0.109400
      6 C5           1.0470    -1.0240     1.2030 ca         1 1XV      -0.216500
      7 C6           0.7670    -2.3130    -0.8000 ca         1 1XV      -0.216500
      8 C7          -6.7110     0.1450     0.9620 ca         1 1XV      -0.267000
      9 C8          -6.0660    -1.0100     1.2990 ca         1 1XV       0.080000
     10 C9           8.5670     3.8660     0.4630 ca         1 1XV      -0.121000
     11 C10          9.0460     3.2560    -1.8210 ca         1 1XV      -0.121000
     12 C11         -5.9460    -1.6370    -1.0170 ca         1 1XV       0.091000
     13 C12          8.8200     1.5290    -0.1340 ca         1 1XV      -0.049800
     14 C13         -1.1160    -1.9800     0.6860 ca         1 1XV      -0.218600
     15 C14          1.6200    -1.5580     0.0290 ca         1 1XV       0.220600
     16 C15         -7.0050     0.4920    -0.3850 ca         1 1XV       0.327600
     17 C16         -6.5970    -0.4600    -1.3710 ca         1 1XV      -0.319200
     18 C17         -5.6740    -1.9100     0.3010 ca         1 1XV      -0.381500
     19 C18          8.7970     4.2190    -0.8580 ca         1 1XV       0.029400
     20 C19          8.8450     0.1050     0.2660 ce         1 1XV      -0.056400
     21 C20          8.0600    -0.8300    -0.2810 c2         1 1XV      -0.140400
     22 C22          9.8330    -0.2610     1.3440 c6         1 1XV      -0.071200
     23 C23          8.1960    -2.2780     0.1130 c6         1 1XV       0.168600
     24 C24         -9.4070     2.2300     0.9490 c6         1 1XV      -0.133400
     25 C25         -8.2290     3.9750    -0.3750 c6         1 1XV      -0.133400
     26 C26          3.4850    -1.9090    -1.5040 c6         1 1XV       0.207800
     27 C27          3.9230    -1.1810     0.7660 c6         1 1XV       0.207800
     28 C28          4.7490    -1.1900    -1.9370 c6         1 1XV       0.153300
     29 C29          5.1650    -0.4730     0.2690 c6         1 1XV       0.153300
     30 C30          9.5530    -1.6470     1.8910 c6         1 1XV       0.131400
     31 C31         -9.8830     3.3490     1.8650 c6         1 1XV       0.132900
     32 C32         -8.7780     4.9900     0.6170 c6         1 1XV       0.132900
     33 C33         -8.0750     2.6200     0.3070 c6         1 1XV       0.230500
     34 C34          6.9850    -0.5760    -1.3000 c3         1 1XV       0.204000
     35 N35          2.9340    -1.3270    -0.2940 nh         1 1XV      -0.659000
     36 N36          5.7260    -1.1640    -0.8720 n3         1 1XV      -0.718600
     37 N38         -3.2430    -3.1090     0.4100 ns         1 1XV      -0.654300
     38 N39         -6.8370    -0.2660    -2.7730 no         1 1XV       0.331200
     39 O40         -6.4660    -1.1150    -3.5520 o          1 1XV      -0.233000
     40 O41         -3.0490    -1.4960     1.9660 o          1 1XV      -0.578100
     41 O42         -7.4060     0.7470    -3.1380 o          1 1XV      -0.233000
     42 O45          9.3660    -2.5620     0.8340 os         1 1XV      -0.397600
     43 O46        -10.0030     4.5740     1.1780 os         1 1XV      -0.395600
     44 S47         -4.8650    -3.4100     0.7050 sy         1 1XV       1.342900
     45 H1           8.4020     2.2560     1.8480 ha         1 1XV       0.137000
     46 H2           9.2610     1.1680    -2.2040 ha         1 1XV       0.137000
     47 H3          -0.6710    -0.7830     2.4170 ha         1 1XV       0.138000
     48 H4          -1.1490    -3.0980    -1.1710 ha         1 1XV       0.138000
     49 H5           1.6350    -0.4240     1.8820 ha         1 1XV       0.136000
     50 H6           1.1310    -2.7710    -1.7080 ha         1 1XV       0.136000
     51 H7          -7.0080     0.8100     1.7590 ha         1 1XV       0.146000
     52 H8          -5.8730    -1.2200     2.3410 ha         1 1XV       0.171000
     53 H9           8.3740     4.6240     1.2100 ha         1 1XV       0.149000
     54 H10          9.2330     3.5390    -2.8480 ha         1 1XV       0.149000
     55 H11         -5.6580    -2.3300    -1.7940 ha         1 1XV       0.180000
     56 H22         10.8520    -0.1970     0.9480 hc         1 1XV       0.061200
     57 H22A         9.7820     0.4640     2.1610 hc         1 1XV       0.061200
     58 H23          7.3040    -2.5950     0.6730 h1         1 1XV       0.061700
     59 H23A         8.2200    -2.8920    -0.7930 h1         1 1XV       0.061700
     60 H24A       -10.1460     2.0490     0.1630 hc         1 1XV       0.064450
     61 H25         -8.9090     3.8860    -1.2280 hc         1 1XV       0.064450
     62 H25A        -7.2660     4.3240    -0.7540 hc         1 1XV       0.064450
     63 H26          2.7690    -1.8150    -2.3190 h1         1 1XV       0.049950
     64 H26A         3.6950    -2.9790    -1.3670 h1         1 1XV       0.049950
     65 H27          4.2000    -2.1680     1.1600 h1         1 1XV       0.049950
     66 H27A         3.5210    -0.6010     1.5920 h1         1 1XV       0.049950
     67 H28          5.1590    -1.7210    -2.7980 h1         1 1XV       0.045450
     68 H28A         4.4850    -0.1730    -2.2760 h1         1 1XV       0.045450
     69 H29          4.9200     0.5760     0.0270 h1         1 1XV       0.045450
     70 H29A         5.8930    -0.4500     1.0830 h1         1 1XV       0.045450
     71 H30         10.3890    -2.0090     2.4910 h1         1 1XV       0.047200
     72 H30A         8.6650    -1.6180     2.5370 h1         1 1XV       0.047200
     73 H31        -10.8650     3.1120     2.2750 h1         1 1XV       0.050950
     74 H31A        -9.1880     3.4490     2.7120 h1         1 1XV       0.050950
     75 H32         -8.0340     5.1670     1.4070 h1         1 1XV       0.050950
     76 H32A        -8.9590     5.9440     0.1190 h1         1 1XV       0.050950
     77 H33         -7.3140     2.7300     1.0870 h1         1 1XV       0.064700
     78 H34          6.8780     0.4970    -1.5130 h1         1 1XV       0.047200
     79 H34A         7.2720    -1.0560    -2.2420 h1         1 1XV       0.047200
     80 HN38        -2.8260    -3.6960    -0.3000 hn         1 1XV       0.348500
     81 C21         -2.5220    -2.1500     1.0870 c          1 1XV       0.727700
     82 N37         -7.6150     1.6440    -0.6620 nu         1 1XV      -0.733600
     83 O43         -5.0630    -3.6820     2.1130 o          1 1XV      -0.601800
     84 O44         -5.2030    -4.4200    -0.2820 o          1 1XV      -0.601800
     85 H24         -9.3160     1.3080     1.5280 hc         1 1XV       0.064450
     86 HN37        -7.8340     1.8240    -1.6300 hn         1 1XV       0.478800
@<TRIPOS>BOND
     1     1    10 ar  
     2     1    13 ar  
     3     1    45 1   
     4     2    11 ar  
     5     2    13 ar  
     6     2    46 1   
     7     3     6 ar  
     8     3    14 ar  
     9     3    47 1   
    10     4     7 ar  
    11     4    14 ar  
    12     4    48 1   
    13     5    19 1   
    14     6    15 ar  
    15     6    49 1   
    16     7    15 ar  
    17     7    50 1   
    18     8     9 ar  
    19     8    16 ar  
    20     8    51 1   
    21     9    18 ar  
    22     9    52 1   
    23    10    19 ar  
    24    10    53 1   
    25    11    19 ar  
    26    11    54 1   
    27    12    17 ar  
    28    12    18 ar  
    29    12    55 1   
    30    13    20 1   
    31    14    81 1   
    32    15    35 1   
    33    16    17 ar  
    34    16    82 1   
    35    17    38 1   
    36    18    44 1   
    37    20    21 2   
    38    20    22 1   
    39    21    23 1   
    40    21    34 1   
    41    22    30 1   
    42    22    56 1   
    43    22    57 1   
    44    23    42 1   
    45    23    58 1   
    46    23    59 1   
    47    24    31 1   
    48    24    33 1   
    49    24    60 1   
    50    24    85 1   
    51    25    32 1   
    52    25    33 1   
    53    25    61 1   
    54    25    62 1   
    55    26    28 1   
    56    26    35 1   
    57    26    63 1   
    58    26    64 1   
    59    27    29 1   
    60    27    35 1   
    61    27    65 1   
    62    27    66 1   
    63    28    36 1   
    64    28    67 1   
    65    28    68 1   
    66    29    36 1   
    67    29    69 1   
    68    29    70 1   
    69    30    42 1   
    70    30    71 1   
    71    30    72 1   
    72    31    43 1   
    73    31    73 1   
    74    31    74 1   
    75    32    43 1   
    76    32    75 1   
    77    32    76 1   
    78    33    77 1   
    79    33    82 1   
    80    34    36 1   
    81    34    78 1   
    82    34    79 1   
    83    37    44 1   
    84    37    80 1   
    85    37    81 1   
    86    38    39 1   
    87    38    41 1   
    88    40    81 2   
    89    44    83 2   
    90    44    84 2   
    91    82    86 1   
@<TRIPOS>SUBSTRUCTURE
     1 1XV         1 TEMP              0 ****  ****    0 ROOT
