@<TRIPOS>MOLECULE
1XV
   86    91     1     0     0
SMALL
No Charge or Current Charge


@<TRIPOS>ATOM
      1 C1           7.9720     1.7290     1.1980 ca         1 1XV      -0.094500
      2 C2           8.9350     2.0670    -1.0110 ca         1 1XV      -0.094500
      3 C3           0.0410    -0.5280     1.4650 ca         1 1XV      -0.017000
      4 C4          -0.3500    -2.5010     0.1060 ca         1 1XV      -0.017000
      5 Cl4          7.3010     5.5880     0.1560 cl         1 1XV      -0.201000
      6 C5           1.3730    -0.4900     1.0210 ca         1 1XV      -0.198500
      7 C6           0.9840    -2.4530    -0.3340 ca         1 1XV      -0.198500
      8 C7          -6.4530     0.8690     1.1410 ca         1 1XV      -0.249000
      9 C8          -5.7960    -0.2640     1.6350 ca         1 1XV       0.098000
     10 C9           7.5530     3.0710     1.2210 ca         1 1XV      -0.103000
     11 C10          8.5170     3.4100    -0.9880 ca         1 1XV      -0.103000
     12 C11         -5.9060    -1.2660    -0.5790 ca         1 1XV       0.109000
     13 C12          8.6600     1.2210     0.0800 ca         1 1XV      -0.049800
     14 C13         -0.8410    -1.5340     1.0160 ca         1 1XV      -0.218600
     15 C14          1.8590    -1.4500     0.1200 ca         1 1XV       0.359000
     16 C15         -6.8540     0.9480    -0.2010 ca         1 1XV       0.466000
     17 C16         -6.5700    -0.1220    -1.0770 ca         1 1XV      -0.319200
     18 C17         -5.5300    -1.3360     0.7720 ca         1 1XV      -0.381500
     19 C18          7.8250     3.9090     0.1280 ca         1 1XV       0.121000
     20 C19          9.0950    -0.2010     0.0530 ce         1 1XV      -0.056400
     21 C20          8.5110    -1.1370    -0.7410 c2         1 1XV      -0.140400
     22 C22         10.2590    -0.5680     0.9820 c6         1 1XV      -0.071200
     23 C23          8.9620    -2.5980    -0.7170 c6         1 1XV       0.191800
     24 C24         -9.7010     1.9870     0.4820 c6         1 1XV      -0.133400
     25 C25         -8.9090     4.1100    -0.6600 c6         1 1XV      -0.133400
     26 C26          3.6220    -1.9630    -1.6320 c6         1 1XV       0.207800
     27 C27          4.3110    -1.3890     0.6940 c6         1 1XV       0.207800
     28 C28          4.9610    -1.3480    -2.1540 c6         1 1XV       0.153300
     29 C29          5.6380    -0.7890     0.1270 c6         1 1XV       0.153300
     30 C30         10.3900    -2.0940     1.1620 c6         1 1XV       0.154600
     31 C31        -10.7950     2.8340     1.1700 c6         1 1XV       0.156100
     32 C32        -10.0360     4.8620     0.0840 c6         1 1XV       0.156100
     33 C33         -8.4730     2.8680     0.1490 c6         1 1XV       0.230500
     34 C34          7.3420    -0.8830    -1.6800 c3         1 1XV       0.204000
     35 N35          3.2030    -1.3900    -0.3130 nh         1 1XV      -0.797400
     36 N36          6.0700    -1.4320    -1.1550 n3         1 1XV      -0.718600
     37 N38         -3.0720    -2.5270     1.0380 ns         1 1XV      -0.587300
     38 N39         -6.9220    -0.0950    -2.5240 no         1 1XV       0.711200
     39 O40         -6.2750    -0.8220    -3.2870 o          1 1XV      -0.423000
     40 O41         -2.6750    -0.7030     2.3070 o          1 1XV      -0.578100
     41 O42         -7.8600     0.6170    -2.9020 o          1 1XV      -0.423000
     42 O45         10.2700    -2.7410    -0.1190 os         1 1XV      -0.444000
     43 O46        -11.1370     3.9620     0.3360 os         1 1XV      -0.442000
     44 S47         -4.6830    -2.7910     1.3870 sy         1 1XV       1.201300
     45 H1           7.7580     1.0810     2.0450 ha         1 1XV       0.119000
     46 H2           9.4710     1.6820    -1.8760 ha         1 1XV       0.119000
     47 H3          -0.3010     0.2360     2.1620 ha         1 1XV       0.120000
     48 H4          -0.9830    -3.3000    -0.2710 ha         1 1XV       0.120000
     49 H5           2.0280     0.3010     1.3710 ha         1 1XV       0.118000
     50 H6           1.3350    -3.2150    -1.0230 ha         1 1XV       0.118000
     51 H7          -6.6370     1.6950     1.8190 ha         1 1XV       0.128000
     52 H8          -5.4940    -0.2950     2.6820 ha         1 1XV       0.153000
     53 H9           7.0190     3.4610     2.0840 ha         1 1XV       0.131000
     54 H10          8.7280     4.0610    -1.8320 ha         1 1XV       0.131000
     55 H11         -5.6830    -2.1050    -1.2410 ha         1 1XV       0.162000
     56 H22         11.1920    -0.1700     0.5620 hc         1 1XV       0.061200
     57 H22A        10.1320    -0.0930     1.9640 hc         1 1XV       0.061200
     58 H23          8.2390    -3.1960    -0.1430 h1         1 1XV       0.061700
     59 H23A         8.9960    -3.0060    -1.7370 h1         1 1XV       0.061700
     60 H24A       -10.1090     1.5400    -0.4350 hc         1 1XV       0.064450
     61 H25         -9.2680     3.8150    -1.6550 hc         1 1XV       0.064450
     62 H25A        -8.0540     4.7810    -0.8140 hc         1 1XV       0.064450
     63 H26          2.8450    -1.7860    -2.3890 h1         1 1XV       0.049950
     64 H26A         3.7500    -3.0520    -1.5400 h1         1 1XV       0.049950
     65 H27          4.5070    -2.4190     1.0240 h1         1 1XV       0.049950
     66 H27A         4.0300    -0.8140     1.5870 h1         1 1XV       0.049950
     67 H28          5.2430    -1.8670    -3.0810 h1         1 1XV       0.045450
     68 H28A         4.7760    -0.2960    -2.4210 h1         1 1XV       0.045450
     69 H29          5.4940     0.2910    -0.0250 h1         1 1XV       0.045450
     70 H29A         6.4150    -0.9010     0.8960 h1         1 1XV       0.045450
     71 H30         11.3640    -2.3410     1.6060 h1         1 1XV       0.047200
     72 H30A         9.6010    -2.4680     1.8310 h1         1 1XV       0.047200
     73 H31        -11.6950     2.2240     1.3350 h1         1 1XV       0.050950
     74 H31A       -10.4430     3.1960     2.1470 h1         1 1XV       0.050950
     75 H32         -9.6660     5.2630     1.0400 h1         1 1XV       0.050950
     76 H32A       -10.3930     5.7040    -0.5250 h1         1 1XV       0.050950
     77 H33         -8.0220     3.2210     1.0900 h1         1 1XV       0.064700
     78 H34          7.2320     0.1920    -1.8720 h1         1 1XV       0.047200
     79 H34A         7.5710    -1.3460    -2.6500 h1         1 1XV       0.047200
     80 HN38        -2.7220    -3.1920     0.3750 hn         1 1XV       0.348500
     81 C21         -2.2700    -1.5420     1.5170 c          1 1XV       0.660700
     82 N37         -7.4990     2.1040    -0.6410 nu         1 1XV      -0.927200
     83 O43         -4.7980    -2.8230     2.8490 o          1 1XV      -0.531000
     84 O44         -5.0650    -3.9410     0.5610 o          1 1XV      -0.531000
     85 H24         -9.4110     1.1560     1.1390 hc         1 1XV       0.064450
     86 HN37        -7.6980     2.0620    -1.6420 hn         1 1XV       0.534000
@<TRIPOS>BOND
     1     1    10 ar  
     2     1    13 ar  
     3     1    45 1   
     4     2    11 ar  
     5     2    13 ar  
     6     2    46 1   
     7     3     6 ar  
     8     3    14 ar  
     9     3    47 1   
    10     4     7 ar  
    11     4    14 ar  
    12     4    48 1   
    13     5    19 1   
    14     6    15 ar  
    15     6    49 1   
    16     7    15 ar  
    17     7    50 1   
    18     8     9 ar  
    19     8    16 ar  
    20     8    51 1   
    21     9    18 ar  
    22     9    52 1   
    23    10    19 ar  
    24    10    53 1   
    25    11    19 ar  
    26    11    54 1   
    27    12    17 ar  
    28    12    18 ar  
    29    12    55 1   
    30    13    20 1   
    31    14    81 1   
    32    15    35 1   
    33    16    17 ar  
    34    16    82 1   
    35    17    38 1   
    36    18    44 1   
    37    20    21 2   
    38    20    22 1   
    39    21    23 1   
    40    21    34 1   
    41    22    30 1   
    42    22    56 1   
    43    22    57 1   
    44    23    42 1   
    45    23    58 1   
    46    23    59 1   
    47    24    31 1   
    48    24    33 1   
    49    24    60 1   
    50    24    85 1   
    51    25    32 1   
    52    25    33 1   
    53    25    61 1   
    54    25    62 1   
    55    26    28 1   
    56    26    35 1   
    57    26    63 1   
    58    26    64 1   
    59    27    29 1   
    60    27    35 1   
    61    27    65 1   
    62    27    66 1   
    63    28    36 1   
    64    28    67 1   
    65    28    68 1   
    66    29    36 1   
    67    29    69 1   
    68    29    70 1   
    69    30    42 1   
    70    30    71 1   
    71    30    72 1   
    72    31    43 1   
    73    31    73 1   
    74    31    74 1   
    75    32    43 1   
    76    32    75 1   
    77    32    76 1   
    78    33    77 1   
    79    33    82 1   
    80    34    36 1   
    81    34    78 1   
    82    34    79 1   
    83    37    44 1   
    84    37    80 1   
    85    37    81 1   
    86    38    39 1   
    87    38    41 1   
    88    40    81 2   
    89    44    83 2   
    90    44    84 2   
    91    82    86 1   
@<TRIPOS>SUBSTRUCTURE
     1 1XV         1 TEMP              0 ****  ****    0 ROOT
