@<TRIPOS>MOLECULE
1XW
   26    28     1     0     0
SMALL
abcg2


@<TRIPOS>ATOM
      1 N19         -1.2070     1.3740    -0.9810 n7         1 1XW      -0.863400
      2 C20         -0.2160     1.7860     0.0060 c6         1 1XW       0.176800
      3 C21          1.0230     0.9420    -0.1880 c5         1 1XW       0.168500
      4 C23          2.1930     1.1250     0.7760 c5         1 1XW      -0.048400
      5 C24          2.8660    -0.2360     0.7540 cx         1 1XW      -0.147700
      6 C26          3.1000    -0.8880    -0.5850 cx         1 1XW      -0.189400
      7 C27          1.8570    -1.1930     0.2120 cx         1 1XW       0.161500
      8 N28          0.6540    -0.4540    -0.0220 n3         1 1XW      -0.687600
      9 C29         -0.2620    -0.8780    -1.0500 c6         1 1XW       0.206800
     10 C30         -1.5350    -0.0470    -0.9170 c6         1 1XW       0.021500
     11 C32         -2.3800    -0.4670     0.3170 c          1 1XW       0.708000
     12 O33         -2.9520     0.4460     0.9470 o          1 1XW      -0.735500
     13 H23          0.0180     2.8420    -0.1560 h1         1 1XW       0.032200
     14 H24         -0.5610     1.6780     1.0430 h1         1 1XW       0.032200
     15 H25          1.3810     1.1280    -1.2170 h1         1 1XW       0.017700
     16 H26          2.8460     1.9470     0.4770 hc         1 1XW       0.041200
     17 H27          1.8350     1.3360     1.7880 hc         1 1XW       0.041200
     18 H28          3.5090    -0.5120     1.5810 hc         1 1XW       0.071700
     19 H29          3.0440    -0.2940    -1.4910 hc         1 1XW       0.060700
     20 H30          3.8570    -1.6610    -0.6190 hc         1 1XW       0.060700
     21 H31          1.7250    -2.1880     0.6220 h1         1 1XW       0.098700
     22 H33          0.1670    -0.7530    -2.0590 h1         1 1XW       0.027200
     23 H34         -0.5080    -1.9310    -0.9220 h1         1 1XW       0.027200
     24 H35         -2.1570    -0.2680    -1.7950 h1         1 1XW       0.039700
     25 OXT         -2.4730    -1.6900     0.5430 o          1 1XW      -0.735500
     26 H2          -2.0580     1.8910    -0.8040 hn         1 1XW       0.416000
@<TRIPOS>BOND
     1     1     2 1   
     2     1    10 1   
     3     1    26 1   
     4     2     3 1   
     5     2    13 1   
     6     2    14 1   
     7     3     4 1   
     8     3     8 1   
     9     3    15 1   
    10     4     5 1   
    11     4    16 1   
    12     4    17 1   
    13     5     6 1   
    14     5     7 1   
    15     5    18 1   
    16     6     7 1   
    17     6    19 1   
    18     6    20 1   
    19     7     8 1   
    20     7    21 1   
    21     8     9 1   
    22     9    10 1   
    23     9    22 1   
    24     9    23 1   
    25    10    11 1   
    26    10    24 1   
    27    11    12 1   
    28    11    25 1   
@<TRIPOS>SUBSTRUCTURE
     1 1XW         1 TEMP              0 ****  ****    0 ROOT
