@<TRIPOS>MOLECULE
1XW
   26    28     1     0     0
SMALL
No Charge or Current Charge


@<TRIPOS>ATOM
      1 N19         -1.3110     1.4240    -0.9510 n7         1 1XW      -0.863400
      2 C20         -0.2200     1.8540    -0.0130 c6         1 1XW       0.176800
      3 C21          1.0720     0.9990    -0.2220 c5         1 1XW       0.168500
      4 C23          2.2800     1.1820     0.7580 c5         1 1XW      -0.048400
      5 C24          2.9540    -0.2240     0.7630 cx         1 1XW      -0.147700
      6 C26          3.1850    -0.8770    -0.5880 cx         1 1XW      -0.189400
      7 C27          1.9350    -1.1800     0.2120 cx         1 1XW       0.161500
      8 N28          0.7370    -0.4250     0.0050 n3         1 1XW      -0.687600
      9 C29         -0.2650    -0.9530    -0.9500 c6         1 1XW       0.206800
     10 C30         -1.5760    -0.0880    -0.9130 c6         1 1XW       0.021500
     11 C32         -2.4970    -0.6000     0.2700 c          1 1XW       0.708000
     12 O33         -2.7680     0.1870     1.1710 o          1 1XW      -0.735500
     13 H23          0.0080     2.9180    -0.1760 h1         1 1XW       0.032200
     14 H24         -0.5620     1.7470     1.0270 h1         1 1XW       0.032200
     15 H25          1.4100     1.1560    -1.2570 h1         1 1XW       0.017700
     16 H26          2.9580     1.9760     0.4280 hc         1 1XW       0.041200
     17 H27          1.9340     1.4500     1.7630 hc         1 1XW       0.041200
     18 H28          3.5680    -0.5400     1.6030 hc         1 1XW       0.071700
     19 H29          3.1030    -0.2770    -1.4900 hc         1 1XW       0.060700
     20 H30          3.9380    -1.6590    -0.6430 hc         1 1XW       0.060700
     21 H31          1.8350    -2.1690     0.6660 h1         1 1XW       0.098700
     22 H33          0.1490    -0.9310    -1.9690 h1         1 1XW       0.027200
     23 H34         -0.5080    -2.0010    -0.7220 h1         1 1XW       0.027200
     24 H35         -2.1430    -0.3360    -1.8220 h1         1 1XW       0.039700
     25 OXT         -3.2750    -1.5040    -0.0100 o          1 1XW      -0.735500
     26 H2          -2.1780     1.9060    -0.6780 hn         1 1XW       0.416000
@<TRIPOS>BOND
     1     1     2 1   
     2     1    10 1   
     3     1    26 1   
     4     2     3 1   
     5     2    13 1   
     6     2    14 1   
     7     3     4 1   
     8     3     8 1   
     9     3    15 1   
    10     4     5 1   
    11     4    16 1   
    12     4    17 1   
    13     5     6 1   
    14     5     7 1   
    15     5    18 1   
    16     6     7 1   
    17     6    19 1   
    18     6    20 1   
    19     7     8 1   
    20     7    21 1   
    21     8     9 1   
    22     9    10 1   
    23     9    22 1   
    24     9    23 1   
    25    10    11 1   
    26    10    24 1   
    27    11    12 1   
    28    11    25 1   
@<TRIPOS>SUBSTRUCTURE
     1 1XW         1 TEMP              0 ****  ****    0 ROOT
