@<TRIPOS>MOLECULE
1XX
   17    17     1     0     0
SMALL
abcg2


@<TRIPOS>ATOM
      1 CAA        -32.6970    24.1720    -1.5440 c3         1 1XX      -0.038900
      2 CAF        -32.2720    25.4120    -2.2330 c2         1 1XX       0.115900
      3 OAE        -33.1890    26.3970    -2.3650 os         1 1XX      -0.324100
      4 CAI        -32.5610    27.5140    -3.0580 c5         1 1XX       0.049300
      5 CAB        -33.3460    27.8560    -4.3060 c3         1 1XX      -0.085100
      6 CAG        -31.1400    27.0440    -3.3270 c          1 1XX       0.532300
      7 OAC        -30.2590    27.6750    -3.9090 o          1 1XX      -0.527100
      8 CAH        -31.0640    25.7300    -2.7700 ce         1 1XX      -0.149100
      9 OAD        -29.9680    24.9250    -2.7870 oh         1 1XX      -0.511100
     10 H1         -33.7610    24.2060    -1.3210 hc         1 1XX       0.065367
     11 H2         -32.4850    23.3020    -2.1690 hc         1 1XX       0.065367
     12 H3         -32.1400    24.0480    -0.6120 hc         1 1XX       0.065367
     13 H4         -32.5450    28.3480    -2.3530 h1         1 1XX       0.097700
     14 H5         -34.3580    28.1680    -4.0480 hc         1 1XX       0.056700
     15 H6         -32.8470    28.6760    -4.8240 hc         1 1XX       0.056700
     16 H7         -33.3930    26.9940    -4.9730 hc         1 1XX       0.056700
     17 H8         -29.2550    25.4010    -3.2400 ho         1 1XX       0.475000
@<TRIPOS>BOND
     1     1     2 1   
     2     1    10 1   
     3     1    11 1   
     4     1    12 1   
     5     2     3 1   
     6     2     8 2   
     7     3     4 1   
     8     4     5 1   
     9     4     6 1   
    10     4    13 1   
    11     5    14 1   
    12     5    15 1   
    13     5    16 1   
    14     6     7 2   
    15     6     8 1   
    16     8     9 1   
    17     9    17 1   
@<TRIPOS>SUBSTRUCTURE
     1 1XX         1 TEMP              0 ****  ****    0 ROOT
