@<TRIPOS>MOLECULE
1XY
   22    23     1     0     0
SMALL
abcg2


@<TRIPOS>ATOM
      1 N34         -1.5890     2.1830     0.3960 n8         1 1XY      -0.984200
      2 C35         -1.3410     0.9300    -0.3040 c6         1 1XY       0.219800
      3 C37         -2.2460    -0.1570     0.2570 c6         1 1XY      -0.119400
      4 C38         -1.8450    -1.4980    -0.3110 c6         1 1XY       0.164600
      5 O39         -0.5120    -1.8430     0.0420 os         1 1XY      -0.345100
      6 C40          0.4170    -0.8630     0.0050 ca         1 1XY       0.146100
      7 C41          1.7430    -1.2700     0.1560 ca         1 1XY      -0.146000
      8 C42          2.7650    -0.3370     0.1400 ca         1 1XY      -0.076000
      9 C43          2.4730     1.0110    -0.0280 ca         1 1XY      -0.148000
     10 C44          1.1510     1.4060    -0.1680 ca         1 1XY      -0.062000
     11 C45          0.1010     0.4910    -0.1540 ca         1 1XY      -0.151300
     12 H36         -1.1250     2.9460    -0.0810 hn         1 1XY       0.393000
     13 H37         -1.5530     1.0120    -1.3810 h1         1 1XY       0.022700
     14 H38         -2.1730    -0.1700     1.3480 hc         1 1XY       0.063700
     15 H39         -3.2890     0.0420     0.0000 hc         1 1XY       0.063700
     16 H40         -2.4750    -2.2980     0.0740 h1         1 1XY       0.053200
     17 H41         -1.9410    -1.4920    -1.4030 h1         1 1XY       0.053200
     18 H42          1.9600    -2.3230     0.2870 ha         1 1XY       0.126000
     19 H43          3.7900    -0.6650     0.2570 ha         1 1XY       0.113000
     20 H44          3.2640     1.7480    -0.0450 ha         1 1XY       0.114000
     21 H45          0.9400     2.4610    -0.2940 ha         1 1XY       0.106000
     22 H2          -2.5770     2.3960     0.3230 hn         1 1XY       0.393000
@<TRIPOS>BOND
     1     1     2 1   
     2     1    12 1   
     3     1    22 1   
     4     2     3 1   
     5     2    11 1   
     6     2    13 1   
     7     3     4 1   
     8     3    14 1   
     9     3    15 1   
    10     4     5 1   
    11     4    16 1   
    12     4    17 1   
    13     5     6 1   
    14     6     7 ar  
    15     6    11 ar  
    16     7     8 ar  
    17     7    18 1   
    18     8     9 ar  
    19     8    19 1   
    20     9    10 ar  
    21     9    20 1   
    22    10    11 ar  
    23    10    21 1   
@<TRIPOS>SUBSTRUCTURE
     1 1XY         1 TEMP              0 ****  ****    0 ROOT
