@<TRIPOS>MOLECULE
1XY
   22    23     1     0     0
SMALL
No Charge or Current Charge


@<TRIPOS>ATOM
      1 N34         -1.6400     2.1780     0.4640 n8         1 1XY      -0.984200
      2 C35         -1.3450     0.9240    -0.2470 c6         1 1XY       0.219800
      3 C37         -2.3120    -0.1710     0.2420 c6         1 1XY      -0.119400
      4 C38         -1.8710    -1.5310    -0.3220 c6         1 1XY       0.164600
      5 O39         -0.5380    -1.8500     0.1260 os         1 1XY      -0.345100
      6 C40          0.4430    -0.8820     0.0630 ca         1 1XY       0.146100
      7 C41          1.7820    -1.2840     0.1980 ca         1 1XY      -0.146000
      8 C42          2.8170    -0.3370     0.1240 ca         1 1XY      -0.076000
      9 C43          2.5090     1.0160    -0.0860 ca         1 1XY      -0.148000
     10 C44          1.1710     1.4280    -0.2090 ca         1 1XY      -0.062000
     11 C45          0.1210     0.4870    -0.1180 ca         1 1XY      -0.151300
     12 H36         -1.0900     2.9300     0.0370 hn         1 1XY       0.393000
     13 H37         -1.5430     1.1080    -1.3140 h1         1 1XY       0.022700
     14 H38         -2.3160    -0.2200     1.3390 hc         1 1XY       0.063700
     15 H39         -3.3380     0.0520    -0.0770 hc         1 1XY       0.063700
     16 H40         -2.5580    -2.3260     0.0030 h1         1 1XY       0.053200
     17 H41         -1.8780    -1.5000    -1.4220 h1         1 1XY       0.053200
     18 H42          2.0160    -2.3340     0.3500 ha         1 1XY       0.126000
     19 H43          3.8530    -0.6530     0.2230 ha         1 1XY       0.113000
     20 H44          3.3100     1.7500    -0.1510 ha         1 1XY       0.114000
     21 H45          0.9550     2.4810    -0.3730 ha         1 1XY       0.106000
     22 H2          -2.6100     2.4450     0.2650 hn         1 1XY       0.393000
@<TRIPOS>BOND
     1     1     2 1   
     2     1    12 1   
     3     1    22 1   
     4     2     3 1   
     5     2    11 1   
     6     2    13 1   
     7     3     4 1   
     8     3    14 1   
     9     3    15 1   
    10     4     5 1   
    11     4    16 1   
    12     4    17 1   
    13     5     6 1   
    14     6     7 ar  
    15     6    11 ar  
    16     7     8 ar  
    17     7    18 1   
    18     8     9 ar  
    19     8    19 1   
    20     9    10 ar  
    21     9    20 1   
    22    10    11 ar  
    23    10    21 1   
@<TRIPOS>SUBSTRUCTURE
     1 1XY         1 TEMP              0 ****  ****    0 ROOT
