@<TRIPOS>MOLECULE
1XZ
   68    72     1     0     0
SMALL
No Charge or Current Charge


@<TRIPOS>ATOM
      1 CAA        -22.7050    -9.5480     1.7950 ca         1 1XZ      -0.120000
      2 CAB        -22.7610   -10.8390     1.2150 ca         1 1XZ      -0.110600
      3 CAC        -23.0220   -11.9420     2.0580 ca         1 1XZ      -0.115000
      4 CAD        -23.2260   -11.7780     3.4390 ca         1 1XZ      -0.021000
      5 CAE        -23.1570   -10.4840     3.9930 ca         1 1XZ      -0.100000
      6 CAF        -22.9090    -9.3650     3.1770 ca         1 1XZ      -0.007800
      7 CAG        -22.8350    -8.0230     3.7610 cc         1 1XZ      -0.043300
      8 CAI        -23.9020   -13.1170     5.5240 c          1 1XZ       0.603100
      9 CAJ        -24.0040   -14.5840     5.9690 c3         1 1XZ      -0.154400
     10 CAL        -22.8810   -14.9620     6.9610 c3         1 1XZ      -0.079100
     11 CAM        -22.5520   -11.0690    -0.2720 c          1 1XZ       0.607700
     12 CAP        -22.1040    -9.9790    -2.4990 c3         1 1XZ       0.095700
     13 CAQ        -21.6480    -8.6520    -3.0510 cc         1 1XZ       0.163300
     14 CAR        -20.4520    -8.3520    -3.6240 cd         1 1XZ      -0.191000
     15 CAX        -23.1330    -6.1960     4.9990 ca         1 1XZ      -0.067000
     16 CAY        -23.6150    -7.4740     4.8210 ca         1 1XZ      -0.120000
     17 CAZ        -23.6960    -5.3660     5.9810 ca         1 1XZ      -0.086000
     18 CBA        -24.7620    -5.8580     6.7630 ca         1 1XZ      -0.097000
     19 CBB        -25.2610    -7.1640     6.5520 ca         1 1XZ      -0.129000
     20 CBC        -24.6890    -7.9900     5.5640 ca         1 1XZ      -0.054000
     21 CBD        -19.5070    -6.1820    -4.5670 c6         1 1XZ       0.100300
     22 CBE        -19.1240    -6.7290    -5.9770 c6         1 1XZ       0.160300
     23 CBF        -20.2320    -6.3900    -7.0200 c6         1 1XZ      -0.101400
     24 CBG        -20.4870    -4.8650    -7.1040 c6         1 1XZ      -0.067400
     25 CBH        -20.8800    -4.2900    -5.7210 c6         1 1XZ      -0.074400
     26 CBI        -19.8320    -4.6520    -4.6310 c6         1 1XZ      -0.069400
     27 CBK        -17.2230    -6.7190    -7.5610 c3         1 1XZ       0.148900
     28 NAH        -23.4710   -12.9450     4.2150 ns         1 1XZ      -0.152000
     29 NAN        -22.3190    -9.9550    -1.0470 ns         1 1XZ      -0.501900
     30 NAS        -20.5720    -7.0160    -3.9380 na         1 1XZ       0.117800
     31 NAT        -21.7980    -6.5420    -3.5350 nd         1 1XZ      -0.194800
     32 NAU        -22.4490    -7.5470    -3.0050 nc         1 1XZ      -0.349000
     33 NAV        -21.9540    -7.0250     3.3600 na         1 1XZ       0.007500
     34 NAW        -22.0960    -5.8590     4.1230 nc         1 1XZ      -0.275400
     35 OAK        -24.2190   -12.2000     6.2720 o          1 1XZ      -0.580100
     36 OAO        -22.5850   -12.1850    -0.7740 o          1 1XZ      -0.607100
     37 OBJ        -17.8340    -6.1940    -6.3660 os         1 1XZ      -0.471000
     38 H1         -22.5170    -8.6730     1.1800 ha         1 1XZ       0.116000
     39 H2         -23.0690   -12.9430     1.6330 ha         1 1XZ       0.135000
     40 H3         -23.2570   -10.3340     5.0620 ha         1 1XZ       0.162000
     41 H4         -24.9680   -14.7340     6.4690 hc         1 1XZ       0.059200
     42 H5         -23.9320   -15.2490     5.0990 hc         1 1XZ       0.059200
     43 H6         -22.9760   -16.0120     7.2650 hc         1 1XZ       0.046367
     44 H7         -21.8940   -14.8270     6.5010 hc         1 1XZ       0.046367
     45 H8         -22.9310   -14.3390     7.8620 hc         1 1XZ       0.046367
     46 H9         -23.0420   -10.2690    -2.9910 h1         1 1XZ       0.067700
     47 H10        -21.3500   -10.7420    -2.7350 h1         1 1XZ       0.067700
     48 H11        -19.5720    -8.9530    -3.8180 h4         1 1XZ       0.169000
     49 H12        -23.3200    -4.3560     6.1330 ha         1 1XZ       0.125000
     50 H13        -25.2100    -5.2250     7.5260 ha         1 1XZ       0.110000
     51 H14        -26.0920    -7.5310     7.1500 ha         1 1XZ       0.112000
     52 H15        -25.0820    -8.9880     5.3840 ha         1 1XZ       0.125000
     53 H16        -18.6240    -6.2980    -3.9230 h1         1 1XZ       0.071700
     54 H17        -19.0210    -7.8220    -5.9160 h1         1 1XZ       0.042700
     55 H18        -21.1640    -6.9000    -6.7380 hc         1 1XZ       0.056700
     56 H19        -19.9710    -6.7860    -8.0100 hc         1 1XZ       0.056700
     57 H20        -19.5870    -4.3550    -7.4760 hc         1 1XZ       0.045700
     58 H21        -21.2840    -4.6590    -7.8320 hc         1 1XZ       0.045700
     59 H22        -20.9770    -3.1980    -5.7900 hc         1 1XZ       0.054700
     60 H23        -21.8730    -4.6630    -5.4400 hc         1 1XZ       0.054700
     61 H24        -18.9030    -4.1070    -4.8450 hc         1 1XZ       0.057700
     62 H25        -20.1660    -4.2910    -3.6480 hc         1 1XZ       0.057700
     63 H26        -16.2080    -6.3180    -7.6740 h1         1 1XZ       0.034367
     64 H27        -17.1540    -7.8130    -7.5170 h1         1 1XZ       0.034367
     65 H28        -17.7930    -6.4380    -8.4550 h1         1 1XZ       0.034367
     66 H29        -23.2910   -13.8100     3.7220 hn         1 1XZ       0.153000
     67 H30        -22.3180    -9.0580    -0.5790 hn         1 1XZ       0.319500
     68 H31        -21.2540    -7.0910     2.6280 hn         1 1XZ       0.368000
@<TRIPOS>BOND
     1     1     2 ar  
     2     1     6 ar  
     3     1    38 1   
     4     2     3 ar  
     5     2    11 1   
     6     3     4 ar  
     7     3    39 1   
     8     4     5 ar  
     9     4    28 1   
    10     5     6 ar  
    11     5    40 1   
    12     6     7 1   
    13     7    16 2   
    14     7    33 1   
    15     8     9 1   
    16     8    28 1   
    17     8    35 2   
    18     9    10 1   
    19     9    41 1   
    20     9    42 1   
    21    10    43 1   
    22    10    44 1   
    23    10    45 1   
    24    11    29 1   
    25    11    36 2   
    26    12    13 1   
    27    12    29 1   
    28    12    46 1   
    29    12    47 1   
    30    13    14 2   
    31    13    32 1   
    32    14    30 1   
    33    14    48 1   
    34    15    16 ar  
    35    15    17 ar  
    36    15    34 2   
    37    16    20 ar  
    38    17    18 ar  
    39    17    49 1   
    40    18    19 ar  
    41    18    50 1   
    42    19    20 ar  
    43    19    51 1   
    44    20    52 1   
    45    21    22 1   
    46    21    26 1   
    47    21    30 1   
    48    21    53 1   
    49    22    23 1   
    50    22    37 1   
    51    22    54 1   
    52    23    24 1   
    53    23    55 1   
    54    23    56 1   
    55    24    25 1   
    56    24    57 1   
    57    24    58 1   
    58    25    26 1   
    59    25    59 1   
    60    25    60 1   
    61    26    61 1   
    62    26    62 1   
    63    27    37 1   
    64    27    63 1   
    65    27    64 1   
    66    27    65 1   
    67    28    66 1   
    68    29    67 1   
    69    30    31 1   
    70    31    32 2   
    71    33    34 1   
    72    33    68 1   
@<TRIPOS>SUBSTRUCTURE
     1 1XZ         1 TEMP              0 ****  ****    0 ROOT
