@<TRIPOS>MOLECULE
1XZ
   68    72     1     0     0
SMALL
abcg2


@<TRIPOS>ATOM
      1 CAA        -23.2630    -9.4830     1.5200 ca         1 1XZ      -0.120000
      2 CAB        -23.1360   -10.7700     1.0030 ca         1 1XZ      -0.110600
      3 CAC        -23.0760   -11.8620     1.8590 ca         1 1XZ      -0.115000
      4 CAD        -23.1110   -11.6790     3.2440 ca         1 1XZ      -0.021000
      5 CAE        -23.2170   -10.3890     3.7640 ca         1 1XZ      -0.100000
      6 CAF        -23.3030    -9.2890     2.9040 ca         1 1XZ      -0.007800
      7 CAG        -23.4370    -7.9500     3.4680 cc         1 1XZ      -0.043300
      8 CAI        -23.1010   -12.9520     5.4000 c          1 1XZ       0.603100
      9 CAJ        -23.0350   -14.3860     5.8950 c3         1 1XZ      -0.154400
     10 CAL        -22.4330   -14.5050     7.2910 c3         1 1XZ      -0.079100
     11 CAM        -23.0890   -11.0420    -0.4720 c          1 1XZ       0.607700
     12 CAP        -22.4760   -10.1990    -2.6930 c3         1 1XZ       0.095700
     13 CAQ        -21.8500    -8.9900    -3.2930 cc         1 1XZ       0.163300
     14 CAR        -20.5340    -8.7480    -3.6100 cd         1 1XZ      -0.191000
     15 CAX        -23.8340    -6.0610     4.6210 ca         1 1XZ      -0.067000
     16 CAY        -24.0150    -7.4820     4.6640 ca         1 1XZ      -0.120000
     17 CAZ        -24.3080    -5.2400     5.6690 ca         1 1XZ      -0.086000
     18 CBA        -24.9480    -5.8480     6.7180 ca         1 1XZ      -0.097000
     19 CBB        -25.1450    -7.2560     6.7580 ca         1 1XZ      -0.129000
     20 CBC        -24.6930    -8.0740     5.7530 ca         1 1XZ      -0.054000
     21 CBD        -19.3390    -6.7710    -4.5990 c6         1 1XZ       0.100300
     22 CBE        -19.2920    -6.8240    -6.1370 c6         1 1XZ       0.160300
     23 CBF        -20.2370    -5.8100    -6.7800 c6         1 1XZ      -0.101400
     24 CBG        -19.9810    -4.3910    -6.2710 c6         1 1XZ      -0.067400
     25 CBH        -20.1170    -4.3190    -4.7480 c6         1 1XZ      -0.074400
     26 CBI        -19.2180    -5.3440    -4.0530 c6         1 1XZ      -0.069400
     27 CBK        -17.5820    -6.8590    -7.8100 c3         1 1XZ       0.148900
     28 NAH        -23.0160   -12.8290     4.0420 ns         1 1XZ      -0.152000
     29 NAN        -22.5800   -10.0630    -1.2420 ns         1 1XZ      -0.501900
     30 NAS        -20.5170    -7.4860    -4.0910 na         1 1XZ       0.117800
     31 NAT        -21.7530    -6.9650    -4.0800 nd         1 1XZ      -0.194800
     32 NAU        -22.5600    -7.8700    -3.5950 nc         1 1XZ      -0.349000
     33 NAV        -22.9850    -6.8390     2.8430 na         1 1XZ       0.007500
     34 NAW        -23.1940    -5.6850     3.4950 nc         1 1XZ      -0.275400
     35 OAK        -23.2450   -12.0000     6.1570 o          1 1XZ      -0.580100
     36 OAO        -23.4860   -12.1100    -0.9440 o          1 1XZ      -0.607100
     37 OBJ        -17.9220    -6.5840    -6.4600 os         1 1XZ      -0.471000
     38 H1         -23.3790    -8.6380     0.8550 ha         1 1XZ       0.116000
     39 H2         -22.9960   -12.8570     1.4430 ha         1 1XZ       0.135000
     40 H3         -23.2110   -10.2490     4.8300 ha         1 1XZ       0.162000
     41 H4         -24.0640   -14.7610     5.8970 hc         1 1XZ       0.059200
     42 H5         -22.4830   -15.0000     5.1810 hc         1 1XZ       0.059200
     43 H6         -22.4490   -15.5460     7.6170 hc         1 1XZ       0.046367
     44 H7         -21.3970   -14.1610     7.3010 hc         1 1XZ       0.046367
     45 H8         -22.9950   -13.9120     8.0110 hc         1 1XZ       0.046367
     46 H9         -23.4720   -10.3480    -3.1120 h1         1 1XZ       0.067700
     47 H10        -21.8830   -11.0850    -2.9320 h1         1 1XZ       0.067700
     48 H11        -19.6450    -9.3500    -3.5320 h4         1 1XZ       0.169000
     49 H12        -24.1660    -4.1680     5.6330 ha         1 1XZ       0.125000
     50 H13        -25.3220    -5.2470     7.5370 ha         1 1XZ       0.110000
     51 H14        -25.6660    -7.6860     7.6040 ha         1 1XZ       0.112000
     52 H15        -24.8590    -9.1420     5.7970 ha         1 1XZ       0.125000
     53 H16        -18.4970    -7.3570    -4.2360 h1         1 1XZ       0.071700
     54 H17        -19.5570    -7.8380    -6.4600 h1         1 1XZ       0.042700
     55 H18        -21.2610    -6.1120    -6.5460 hc         1 1XZ       0.056700
     56 H19        -20.1400    -5.8600    -7.8660 hc         1 1XZ       0.056700
     57 H20        -18.9760    -4.0750    -6.5650 hc         1 1XZ       0.045700
     58 H21        -20.6810    -3.6990    -6.7430 hc         1 1XZ       0.045700
     59 H22        -19.8520    -3.3200    -4.3930 hc         1 1XZ       0.054700
     60 H23        -21.1570    -4.4940    -4.4690 hc         1 1XZ       0.054700
     61 H24        -18.1740    -5.0550    -4.1970 hc         1 1XZ       0.057700
     62 H25        -19.3980    -5.3590    -2.9760 hc         1 1XZ       0.057700
     63 H26        -16.4970    -6.7970    -7.8820 h1         1 1XZ       0.034367
     64 H27        -17.9070    -7.8660    -8.0970 h1         1 1XZ       0.034367
     65 H28        -18.0240    -6.1350    -8.5010 h1         1 1XZ       0.034367
     66 H29        -22.8950   -13.6910     3.5310 hn         1 1XZ       0.153000
     67 H30        -22.1840    -9.2420    -0.8130 hn         1 1XZ       0.319500
     68 H31        -22.4790    -6.8140     1.9700 hn         1 1XZ       0.368000
@<TRIPOS>BOND
     1     1     2 ar  
     2     1     6 ar  
     3     1    38 1   
     4     2     3 ar  
     5     2    11 1   
     6     3     4 ar  
     7     3    39 1   
     8     4     5 ar  
     9     4    28 1   
    10     5     6 ar  
    11     5    40 1   
    12     6     7 1   
    13     7    16 2   
    14     7    33 1   
    15     8     9 1   
    16     8    28 1   
    17     8    35 2   
    18     9    10 1   
    19     9    41 1   
    20     9    42 1   
    21    10    43 1   
    22    10    44 1   
    23    10    45 1   
    24    11    29 1   
    25    11    36 2   
    26    12    13 1   
    27    12    29 1   
    28    12    46 1   
    29    12    47 1   
    30    13    14 2   
    31    13    32 1   
    32    14    30 1   
    33    14    48 1   
    34    15    16 ar  
    35    15    17 ar  
    36    15    34 2   
    37    16    20 ar  
    38    17    18 ar  
    39    17    49 1   
    40    18    19 ar  
    41    18    50 1   
    42    19    20 ar  
    43    19    51 1   
    44    20    52 1   
    45    21    22 1   
    46    21    26 1   
    47    21    30 1   
    48    21    53 1   
    49    22    23 1   
    50    22    37 1   
    51    22    54 1   
    52    23    24 1   
    53    23    55 1   
    54    23    56 1   
    55    24    25 1   
    56    24    57 1   
    57    24    58 1   
    58    25    26 1   
    59    25    59 1   
    60    25    60 1   
    61    26    61 1   
    62    26    62 1   
    63    27    37 1   
    64    27    63 1   
    65    27    64 1   
    66    27    65 1   
    67    28    66 1   
    68    29    67 1   
    69    30    31 1   
    70    31    32 2   
    71    33    34 1   
    72    33    68 1   
@<TRIPOS>SUBSTRUCTURE
     1 1XZ         1 TEMP              0 ****  ****    0 ROOT
