@<TRIPOS>MOLECULE
1Y0
   82    87     1     0     0
SMALL
No Charge or Current Charge


@<TRIPOS>ATOM
      1 N2           7.4660    -1.6540     0.3300 n7         1 1Y0      -0.842400
      2 C1           8.2980    -2.7520     0.8680 c3         1 1Y0       0.145100
      3 C3           6.4680    -1.0460     1.2730 c3         1 1Y0       0.099500
      4 C5           7.1840    -0.2690     2.4040 c3         1 1Y0      -0.090100
      5 C6           5.4160    -0.1240     0.5550 c          1 1Y0       0.595100
      6 O7           5.7060     0.9380     0.0160 o          1 1Y0      -0.586100
      7 N8           4.1190    -0.5980     0.5790 ns         1 1Y0      -0.493900
      8 C9           2.9430     0.0750    -0.0270 c3         1 1Y0       0.040700
      9 C17          1.7220    -0.0140     0.9530 c          1 1Y0       0.589100
     10 O18          1.7270    -0.8280     1.8730 o          1 1Y0      -0.621100
     11 C11          2.6350    -0.4850    -1.4640 c6         1 1Y0      -0.067700
     12 C12          2.3250    -2.0110    -1.4630 c6         1 1Y0      -0.070400
     13 C13          1.9590    -2.5130    -2.8830 c6         1 1Y0      -0.074400
     14 C14          3.0750    -2.1780    -3.9020 c6         1 1Y0      -0.076400
     15 C15          3.3920    -0.6630    -3.9070 c6         1 1Y0      -0.074400
     16 C16          3.7620    -0.1650    -2.4880 c6         1 1Y0      -0.070400
     17 N19          0.6180     0.8670     0.8010 n          1 1Y0      -0.379800
     18 C20          0.4810     1.8420    -0.3400 c6         1 1Y0       0.115000
     19 C21         -0.3050     3.1160     0.0720 c5         1 1Y0       0.147500
     20 C23         -0.7780     4.1120    -1.0380 c5         1 1Y0      -0.046400
     21 C24         -2.0620     4.7480    -0.4260 cx         1 1Y0      -0.125700
     22 C26         -1.9750     5.2190     1.0150 cx         1 1Y0      -0.163400
     23 C27         -2.4890     3.8350     0.6850 cx         1 1Y0       0.125500
     24 N28         -1.5970     2.7160     0.6570 n3         1 1Y0      -0.696600
     25 C29         -1.4450     1.9250     1.8890 c6         1 1Y0       0.181800
     26 C30         -0.6750     0.6110     1.5480 c6         1 1Y0       0.022700
     27 C32         -1.5620    -0.4300     0.8000 c          1 1Y0       0.597100
     28 O33         -1.1700    -1.5670     0.5680 o          1 1Y0      -0.591100
     29 N34         -2.8140    -0.0150     0.4010 ns         1 1Y0      -0.499900
     30 C35         -3.8240    -0.8220    -0.2880 c6         1 1Y0       0.164000
     31 C37         -4.5010     0.0450    -1.3680 c6         1 1Y0      -0.126400
     32 C38         -5.7530    -0.6700    -1.8960 c6         1 1Y0       0.164600
     33 O39         -6.6930    -0.8790    -0.8230 os         1 1Y0      -0.346100
     34 C40         -6.2380    -1.3700     0.3830 ca         1 1Y0       0.146100
     35 C41         -7.1850    -1.8560     1.2980 ca         1 1Y0      -0.149000
     36 C42         -6.7730    -2.3810     2.5330 ca         1 1Y0      -0.074000
     37 C43         -5.4060    -2.4210     2.8510 ca         1 1Y0      -0.147000
     38 C44         -4.4530    -1.9260     1.9440 ca         1 1Y0      -0.057000
     39 C45         -4.8590    -1.3780     0.7060 ca         1 1Y0      -0.191300
     40 H1           6.9530    -2.0280    -0.4810 hn         1 1Y0       0.421000
     41 H3           8.9320    -2.4050     1.6940 h1         1 1Y0       0.029700
     42 H4           7.6700    -3.5750     1.2350 h1         1 1Y0       0.029700
     43 H5           8.9570    -3.1510     0.0850 h1         1 1Y0       0.029700
     44 H6           5.8950    -1.8550     1.7460 h1         1 1Y0       0.022700
     45 H7           7.8280     0.5170     1.9910 hc         1 1Y0       0.048367
     46 H8           6.4470     0.2050     3.0630 hc         1 1Y0       0.048367
     47 H9           7.7990    -0.9350     3.0200 hc         1 1Y0       0.048367
     48 H10          3.9590    -1.4620     1.0850 hn         1 1Y0       0.325500
     49 H11          3.1810     1.1410    -0.1190 h1         1 1Y0       0.096700
     50 H12          1.7320     0.0280    -1.8160 hc         1 1Y0       0.060700
     51 H21          3.1910    -2.5760    -1.0920 hc         1 1Y0       0.044950
     52 H22          1.4940    -2.2310    -0.7790 hc         1 1Y0       0.044950
     53 H19          1.7870    -3.5970    -2.8620 hc         1 1Y0       0.041700
     54 H20          1.0140    -2.0540    -3.2050 hc         1 1Y0       0.041700
     55 H17          3.9830    -2.7460    -3.6560 hc         1 1Y0       0.037700
     56 H18          2.7700    -2.4990    -4.9080 hc         1 1Y0       0.037700
     57 H15          4.2190    -0.4580    -4.6010 hc         1 1Y0       0.041700
     58 H16          2.5240    -0.1030    -4.2830 hc         1 1Y0       0.041700
     59 H13          3.9490     0.9170    -2.5160 hc         1 1Y0       0.044950
     60 H14          4.7030    -0.6380    -2.1770 hc         1 1Y0       0.044950
     61 H23          1.4610     2.1580    -0.7190 h1         1 1Y0       0.065200
     62 H24         -0.0520     1.3470    -1.1640 h1         1 1Y0       0.065200
     63 H25          0.3040     3.6480     0.8150 h1         1 1Y0       0.039700
     64 H26         -0.0090     4.8550    -1.2760 hc         1 1Y0       0.059700
     65 H27         -1.0140     3.5810    -1.9670 hc         1 1Y0       0.059700
     66 H28         -2.8250     5.1800    -1.0690 hc         1 1Y0       0.094700
     67 H29         -1.0010     5.3220     1.4840 hc         1 1Y0       0.076700
     68 H30         -2.7060     5.9520     1.3470 hc         1 1Y0       0.076700
     69 H31         -3.5530     3.6280     0.8240 h1         1 1Y0       0.106700
     70 H33         -0.8770     2.4970     2.6370 h1         1 1Y0       0.046200
     71 H34         -2.4200     1.6880     2.3400 h1         1 1Y0       0.046200
     72 H35         -0.4480     0.1340     2.5110 h1         1 1Y0       0.088700
     73 H36         -3.0040     0.9720     0.5340 hn         1 1Y0       0.312500
     74 H37         -3.3320    -1.6740    -0.7810 h1         1 1Y0       0.092700
     75 H38         -4.7910     1.0200    -0.9530 hc         1 1Y0       0.060200
     76 H39         -3.7990     0.2420    -2.1890 hc         1 1Y0       0.060200
     77 H40         -6.2360    -0.0750    -2.6840 h1         1 1Y0       0.057200
     78 H41         -5.4770    -1.6450    -2.3220 h1         1 1Y0       0.057200
     79 H42         -8.2420    -1.8320     1.0440 ha         1 1Y0       0.126000
     80 H43         -7.5090    -2.7620     3.2380 ha         1 1Y0       0.113000
     81 H44         -5.0830    -2.8350     3.8030 ha         1 1Y0       0.117000
     82 H45         -3.4010    -1.9710     2.2110 ha         1 1Y0       0.127000
@<TRIPOS>BOND
     1     1     2 1   
     2     1     3 1   
     3     1    40 1   
     4     2    41 1   
     5     2    42 1   
     6     2    43 1   
     7     3     4 1   
     8     3     5 1   
     9     3    44 1   
    10     4    45 1   
    11     4    46 1   
    12     4    47 1   
    13     5     6 2   
    14     5     7 1   
    15     7     8 1   
    16     7    48 1   
    17     8     9 1   
    18     8    11 1   
    19     8    49 1   
    20     9    10 2   
    21     9    17 1   
    22    11    12 1   
    23    11    16 1   
    24    11    50 1   
    25    12    13 1   
    26    12    51 1   
    27    12    52 1   
    28    13    14 1   
    29    13    53 1   
    30    13    54 1   
    31    14    15 1   
    32    14    55 1   
    33    14    56 1   
    34    15    16 1   
    35    15    57 1   
    36    15    58 1   
    37    16    59 1   
    38    16    60 1   
    39    17    18 1   
    40    17    26 1   
    41    18    19 1   
    42    18    61 1   
    43    18    62 1   
    44    19    20 1   
    45    19    24 1   
    46    19    63 1   
    47    20    21 1   
    48    20    64 1   
    49    20    65 1   
    50    21    22 1   
    51    21    23 1   
    52    21    66 1   
    53    22    23 1   
    54    22    67 1   
    55    22    68 1   
    56    23    24 1   
    57    23    69 1   
    58    24    25 1   
    59    25    26 1   
    60    25    70 1   
    61    25    71 1   
    62    26    27 1   
    63    26    72 1   
    64    27    28 2   
    65    27    29 1   
    66    29    30 1   
    67    29    73 1   
    68    30    31 1   
    69    30    39 1   
    70    30    74 1   
    71    31    32 1   
    72    31    75 1   
    73    31    76 1   
    74    32    33 1   
    75    32    77 1   
    76    32    78 1   
    77    33    34 1   
    78    34    35 ar  
    79    34    39 ar  
    80    35    36 ar  
    81    35    79 1   
    82    36    37 ar  
    83    36    80 1   
    84    37    38 ar  
    85    37    81 1   
    86    38    39 ar  
    87    38    82 1   
@<TRIPOS>SUBSTRUCTURE
     1 1Y0         1 TEMP              0 ****  ****    0 ROOT
