@<TRIPOS>MOLECULE
1Y0
   82    87     1     0     0
SMALL
abcg2


@<TRIPOS>ATOM
      1 N2           6.5020    -1.3080     1.9960 n7         1 1Y0      -0.842400
      2 C1           7.1440    -2.4000     2.7010 c3         1 1Y0       0.145100
      3 C3           5.0650    -1.4520     1.9030 c3         1 1Y0       0.099500
      4 C5           4.3930    -1.2310     3.2600 c3         1 1Y0      -0.090100
      5 C6           4.5060    -0.4230     0.9260 c          1 1Y0       0.595100
      6 O7           5.0570     0.6430     0.7040 o          1 1Y0      -0.586100
      7 N8           3.3400    -0.7940     0.3650 ns         1 1Y0      -0.493900
      8 C9           2.5010     0.0840    -0.4070 c3         1 1Y0       0.040700
      9 C17          1.2280     0.3760     0.3890 c          1 1Y0       0.589100
     10 O18          0.8500    -0.4220     1.2360 o          1 1Y0      -0.621100
     11 C11          2.1570    -0.5100    -1.7890 c6         1 1Y0      -0.067700
     12 C12          1.3590    -1.8120    -1.7100 c6         1 1Y0      -0.070400
     13 C13          1.0330    -2.3400    -3.1040 c6         1 1Y0      -0.074400
     14 C14          2.2920    -2.5270    -3.9420 c6         1 1Y0      -0.076400
     15 C15          3.0920    -1.2310    -4.0190 c6         1 1Y0      -0.074400
     16 C16          3.4210    -0.7000    -2.6270 c6         1 1Y0      -0.070400
     17 N19          0.5330     1.5090     0.1200 n          1 1Y0      -0.379800
     18 C20          0.8170     2.3850    -1.0150 c6         1 1Y0       0.115000
     19 C21          0.3430     3.7840    -0.7020 c5         1 1Y0       0.147500
     20 C23          0.4310     4.8150    -1.8240 c5         1 1Y0      -0.046400
     21 C24         -0.6910     5.7780    -1.4810 cx         1 1Y0      -0.125700
     22 C26         -0.8140     6.2380    -0.0520 cx         1 1Y0      -0.163400
     23 C27         -1.6010     5.0530    -0.5460 cx         1 1Y0       0.125500
     24 N28         -1.0700     3.7320    -0.3770 n3         1 1Y0      -0.696600
     25 C29         -1.2520     3.0640     0.8800 c6         1 1Y0       0.181800
     26 C30         -0.7700     1.6140     0.7600 c6         1 1Y0       0.022700
     27 C32         -1.7710     0.7310     0.0100 c          1 1Y0       0.597100
     28 O33         -1.6110     0.4100    -1.1550 o          1 1Y0      -0.591100
     29 N34         -2.8230     0.3400     0.7540 ns         1 1Y0      -0.499900
     30 C35         -3.8460    -0.5630     0.2830 c6         1 1Y0       0.164000
     31 C37         -5.2380    -0.0630     0.6410 c6         1 1Y0      -0.126400
     32 C38         -6.2480    -1.1240     0.2670 c6         1 1Y0       0.164600
     33 O39         -6.0390    -2.3330     0.9850 os         1 1Y0      -0.346100
     34 C40         -4.7660    -2.7600     1.1280 ca         1 1Y0       0.146100
     35 C41         -4.5980    -4.0500     1.6290 ca         1 1Y0      -0.149000
     36 C42         -3.3270    -4.5620     1.8200 ca         1 1Y0      -0.074000
     37 C43         -2.2110    -3.7910     1.5140 ca         1 1Y0      -0.147000
     38 C44         -2.3860    -2.5080     1.0230 ca         1 1Y0      -0.057000
     39 C45         -3.6550    -1.9690     0.8190 ca         1 1Y0      -0.191300
     40 H1           6.8890    -1.2560     1.0630 hn         1 1Y0       0.421000
     41 H3           6.9410    -2.3480     3.7710 h1         1 1Y0       0.029700
     42 H4           6.8370    -3.3970     2.3550 h1         1 1Y0       0.029700
     43 H5           8.2230    -2.3200     2.5750 h1         1 1Y0       0.029700
     44 H6           4.7760    -2.4550     1.5450 h1         1 1Y0       0.022700
     45 H7           4.6380    -0.2440     3.6530 hc         1 1Y0       0.048367
     46 H8           3.3090    -1.3100     3.1750 hc         1 1Y0       0.048367
     47 H9           4.7180    -1.9770     3.9850 hc         1 1Y0       0.048367
     48 H10          2.9380    -1.6710     0.6570 hn         1 1Y0       0.325500
     49 H11          3.0740     1.0000    -0.5610 h1         1 1Y0       0.096700
     50 H12          1.5290     0.2250    -2.3050 hc         1 1Y0       0.060700
     51 H21          1.9370    -2.5710    -1.1700 hc         1 1Y0       0.044950
     52 H22          0.4300    -1.6650    -1.1560 hc         1 1Y0       0.044950
     53 H19          0.4870    -3.2840    -3.0230 hc         1 1Y0       0.041700
     54 H20          0.3620    -1.6350    -3.6060 hc         1 1Y0       0.041700
     55 H17          2.9120    -3.3090    -3.4900 hc         1 1Y0       0.037700
     56 H18          2.0330    -2.8750    -4.9450 hc         1 1Y0       0.037700
     57 H15          4.0130    -1.3850    -4.5860 hc         1 1Y0       0.041700
     58 H16          2.5100    -0.4810    -4.5660 hc         1 1Y0       0.041700
     59 H13          3.9610     0.2490    -2.7020 hc         1 1Y0       0.044950
     60 H14          4.0910    -1.4030    -2.1220 hc         1 1Y0       0.044950
     61 H23          1.8880     2.4040    -1.2080 h1         1 1Y0       0.065200
     62 H24          0.3130     2.0260    -1.9150 h1         1 1Y0       0.065200
     63 H25          0.9280     4.1440     0.1620 h1         1 1Y0       0.039700
     64 H26          1.4170     5.2790    -1.8730 hc         1 1Y0       0.059700
     65 H27          0.2300     4.3540    -2.7950 hc         1 1Y0       0.059700
     66 H28         -1.0870     6.4110    -2.2650 hc         1 1Y0       0.094700
     67 H29          0.0140     6.0940     0.6320 hc         1 1Y0       0.076700
     68 H30         -1.3660     7.1540     0.1190 hc         1 1Y0       0.076700
     69 H31         -2.6810     5.1220    -0.6200 h1         1 1Y0       0.106700
     70 H33         -0.6940     3.5500     1.6960 h1         1 1Y0       0.046200
     71 H34         -2.3050     3.0650     1.1670 h1         1 1Y0       0.046200
     72 H35         -0.6730     1.2320     1.7780 h1         1 1Y0       0.088700
     73 H36         -2.8270     0.5610     1.7380 hn         1 1Y0       0.312500
     74 H37         -3.7600    -0.5890    -0.8060 h1         1 1Y0       0.092700
     75 H38         -5.3060     0.1580     1.7100 hc         1 1Y0       0.060200
     76 H39         -5.4640     0.8570     0.0990 hc         1 1Y0       0.060200
     77 H40         -7.2630    -0.8050     0.5010 h1         1 1Y0       0.057200
     78 H41         -6.2000    -1.3280    -0.8090 h1         1 1Y0       0.057200
     79 H42         -5.4730    -4.6420     1.8670 ha         1 1Y0       0.126000
     80 H43         -3.2080    -5.5650     2.2100 ha         1 1Y0       0.113000
     81 H44         -1.2150    -4.1840     1.6640 ha         1 1Y0       0.117000
     82 H45         -1.5110    -1.9040     0.8120 ha         1 1Y0       0.127000
@<TRIPOS>BOND
     1     1     2 1   
     2     1     3 1   
     3     1    40 1   
     4     2    41 1   
     5     2    42 1   
     6     2    43 1   
     7     3     4 1   
     8     3     5 1   
     9     3    44 1   
    10     4    45 1   
    11     4    46 1   
    12     4    47 1   
    13     5     6 2   
    14     5     7 1   
    15     7     8 1   
    16     7    48 1   
    17     8     9 1   
    18     8    11 1   
    19     8    49 1   
    20     9    10 2   
    21     9    17 1   
    22    11    12 1   
    23    11    16 1   
    24    11    50 1   
    25    12    13 1   
    26    12    51 1   
    27    12    52 1   
    28    13    14 1   
    29    13    53 1   
    30    13    54 1   
    31    14    15 1   
    32    14    55 1   
    33    14    56 1   
    34    15    16 1   
    35    15    57 1   
    36    15    58 1   
    37    16    59 1   
    38    16    60 1   
    39    17    18 1   
    40    17    26 1   
    41    18    19 1   
    42    18    61 1   
    43    18    62 1   
    44    19    20 1   
    45    19    24 1   
    46    19    63 1   
    47    20    21 1   
    48    20    64 1   
    49    20    65 1   
    50    21    22 1   
    51    21    23 1   
    52    21    66 1   
    53    22    23 1   
    54    22    67 1   
    55    22    68 1   
    56    23    24 1   
    57    23    69 1   
    58    24    25 1   
    59    25    26 1   
    60    25    70 1   
    61    25    71 1   
    62    26    27 1   
    63    26    72 1   
    64    27    28 2   
    65    27    29 1   
    66    29    30 1   
    67    29    73 1   
    68    30    31 1   
    69    30    39 1   
    70    30    74 1   
    71    31    32 1   
    72    31    75 1   
    73    31    76 1   
    74    32    33 1   
    75    32    77 1   
    76    32    78 1   
    77    33    34 1   
    78    34    35 ar  
    79    34    39 ar  
    80    35    36 ar  
    81    35    79 1   
    82    36    37 ar  
    83    36    80 1   
    84    37    38 ar  
    85    37    81 1   
    86    38    39 ar  
    87    38    82 1   
@<TRIPOS>SUBSTRUCTURE
     1 1Y0         1 TEMP              0 ****  ****    0 ROOT
