@<TRIPOS>MOLECULE
1Y1
  117   124     1     0     0
SMALL
No Charge or Current Charge


@<TRIPOS>ATOM
      1 C1          -7.9780     1.2990    -3.8140 ca         1 1Y1      -0.068000
      2 C2          -8.1400     2.2830    -2.8320 ca         1 1Y1      -0.143000
      3 C3          -6.8690     3.7580     0.1700 ca         1 1Y1      -0.086000
      4 C4          -9.2670     3.6010    -0.2000 ca         1 1Y1      -0.086000
      5 C5           0.4610     1.5600     3.6250 ca         1 1Y1      -0.001000
      6 C6           2.9260    -2.7490    -1.4120 ca         1 1Y1      -0.121000
      7 Cl6         -8.6490     6.4980     2.5670 cl         1 1Y1      -0.206000
      8 C7          -0.8640     1.6010     3.1620 ca         1 1Y1      -0.239000
      9 C8           6.2140     1.4980     0.2550 ca         1 1Y1      -0.247000
     10 C9          -7.4270     0.0570    -3.4720 ca         1 1Y1      -0.203000
     11 C10          2.5190    -2.6700    -0.0620 ca         1 1Y1      -0.093000
     12 C11          5.6970     2.0680     1.4240 ca         1 1Y1       0.072000
     13 C12         -7.0800     4.7830     1.1090 ca         1 1Y1      -0.112500
     14 C13         -9.4790     4.6270     0.7380 ca         1 1Y1      -0.112500
     15 C14          2.5560     0.5900    -2.6840 cc         1 1Y1      -0.237200
     16 C15          2.0630    -0.2730    -0.3130 ca         1 1Y1      -0.063000
     17 C16         -0.4780    -0.3810     1.8380 ca         1 1Y1      -0.289000
     18 C17          6.1690    -0.0030     2.6170 ca         1 1Y1       0.140000
     19 C18          3.0030    -0.0610    -3.8270 cd         1 1Y1      -0.160100
     20 C19          2.4760    -0.3910    -1.6470 ca         1 1Y1      -0.096800
     21 C20         -7.9590     3.1420    -0.4910 cp         1 1Y1      -0.043000
     22 C21         -7.7460     2.0560    -1.4930 cp         1 1Y1       0.015000
     23 C22          1.3320     0.5340     3.1970 ca         1 1Y1      -0.257600
     24 C23         -7.1870     0.7910    -1.1460 ca         1 1Y1      -0.101300
     25 C24          2.8820    -1.5800    -2.1830 ca         1 1Y1      -0.052200
     26 C25         -1.3410     0.6320     2.2640 ca         1 1Y1       0.404000
     27 C26          6.7060     0.1860     0.2500 ca         1 1Y1       0.462000
     28 C27          6.6930    -0.5720     1.4360 ca         1 1Y1      -0.316200
     29 C28          2.0750    -1.4430     0.4860 ca         1 1Y1       0.060100
     30 C29         -7.0360    -0.2070    -2.1410 ca         1 1Y1       0.149100
     31 C30          0.8450    -0.4340     2.2960 ca         1 1Y1       0.240100
     32 C31          5.6760     1.3140     2.6060 ca         1 1Y1      -0.388500
     33 C32         -8.3850     5.2150     1.3930 ca         1 1Y1       0.123000
     34 C34          6.7790    -0.7350    -4.7600 c6         1 1Y1      -0.112400
     35 C35          6.8500    -2.6080    -3.0350 c6         1 1Y1      -0.112400
     36 C36         -2.9180     0.7090     0.3050 c6         1 1Y1       0.212800
     37 C37         -3.7660     1.2930     2.5750 c6         1 1Y1       0.212800
     38 C38         -4.3500     0.2120    -0.0770 c6         1 1Y1       0.156300
     39 C39         -5.1800     0.7780     2.1520 c6         1 1Y1       0.156300
     40 C40          7.3370    -1.7470    -5.7880 c6         1 1Y1       0.155100
     41 C41          7.4010    -3.5260    -4.1520 c6         1 1Y1       0.155100
     42 C42          7.2050    -1.1160    -3.3140 c6         1 1Y1      -0.079700
     43 C43         -7.7590    -4.8120    -1.2560 c3         1 1Y1       0.149600
     44 C44         -5.6530    -5.2910    -0.0850 c3         1 1Y1       0.149600
     45 C45         -6.8010     0.4730     0.3050 c3         1 1Y1       0.222100
     46 C46          6.5770    -0.1510    -2.2670 c3         1 1Y1       0.223800
     47 C47         -5.6460    -3.7020    -1.9740 c3         1 1Y1       0.165800
     48 N49          3.2100    -1.4300    -3.5220 na         1 1Y1      -0.221700
     49 N50         -2.6640     0.6620     1.7800 nh         1 1Y1      -0.807400
     50 N51         -5.4330     0.9090     0.6850 n3         1 1Y1      -0.726600
     51 N53          3.3200     1.6950     3.9130 ns         1 1Y1      -0.593300
     52 N54         -6.4320    -4.2910    -0.8490 n3         1 1Y1      -0.705600
     53 N55          7.1730    -1.9760     1.4850 no         1 1Y1       0.711200
     54 O56          8.0910    -2.3180     0.7300 o          1 1Y1      -0.421500
     55 O57          3.3550    -0.5620     3.8550 o          1 1Y1      -0.543100
     56 O58          6.6890    -2.7190     2.3460 o          1 1Y1      -0.421500
     57 O61          6.9170    -3.0830    -5.4380 os         1 1Y1      -0.448000
     58 O62          1.6700    -1.4170     1.8030 os         1 1Y1      -0.230200
     59 O63         -6.5060    -1.4310    -1.7780 os         1 1Y1      -0.338100
     60 S64          4.9490     2.0040     4.0910 sy         1 1Y1       1.201300
     61 H1          -8.2830     1.4980    -4.8400 ha         1 1Y1       0.114000
     62 H2          -8.5710     3.2430    -3.1070 ha         1 1Y1       0.120000
     63 H3          -5.8540     3.4380    -0.0530 ha         1 1Y1       0.133500
     64 H4         -10.1190     3.1490    -0.7020 ha         1 1Y1       0.133500
     65 H5           0.7930     2.3200     4.3300 ha         1 1Y1       0.116000
     66 H6           3.2560    -3.6920    -1.8410 ha         1 1Y1       0.118000
     67 H7          -1.5130     2.4020     3.5010 ha         1 1Y1       0.119000
     68 H8           6.2280     2.0880    -0.6550 ha         1 1Y1       0.124000
     69 H9          -7.3180    -0.6900    -4.2530 ha         1 1Y1       0.116000
     70 H10          2.5350    -3.5620     0.5610 ha         1 1Y1       0.134000
     71 H11          5.3080     3.0860     1.4000 ha         1 1Y1       0.132000
     72 H12         -6.2330     5.2440     1.6110 ha         1 1Y1       0.128000
     73 H13        -10.4880     4.9660     0.9570 ha         1 1Y1       0.128000
     74 H14          2.3100     1.6480    -2.6110 ha         1 1Y1       0.208000
     75 H15          1.7430     0.6880     0.0800 ha         1 1Y1       0.130000
     76 H16         -0.8320    -1.1390     1.1480 ha         1 1Y1       0.130000
     77 H17          6.1360    -0.5860     3.5390 ha         1 1Y1       0.180000
     78 H18          3.1840     0.3410    -4.8220 h4         1 1Y1       0.214000
     79 HN49         3.5230    -2.1580    -4.1570 hn         1 1Y1       0.351000
     80 HN52         7.7110    -1.2010    -0.8140 hn         1 1Y1       0.536000
     81 H34A         5.6850    -0.7060    -4.8400 hc         1 1Y1       0.055450
     82 H35          5.7620    -2.7330    -2.9680 hc         1 1Y1       0.055450
     83 H35A         7.2600    -2.9300    -2.0690 hc         1 1Y1       0.055450
     84 H36         -2.1860     0.0950    -0.2390 h1         1 1Y1       0.049450
     85 H36A        -2.8010     1.7420    -0.0550 h1         1 1Y1       0.049450
     86 H37         -3.7390     2.3850     2.4460 h1         1 1Y1       0.049450
     87 H37A        -3.6300     1.0850     3.6460 h1         1 1Y1       0.049450
     88 H38         -4.4820     0.3620    -1.1580 h1         1 1Y1       0.046200
     89 H38A        -4.4010    -0.8720     0.1040 h1         1 1Y1       0.046200
     90 H39         -5.2690    -0.2760     2.4550 h1         1 1Y1       0.046200
     91 H39A        -5.9370     1.3380     2.7200 h1         1 1Y1       0.046200
     92 H40          6.9640    -1.5060    -6.7940 h1         1 1Y1       0.048200
     93 H40A         8.4360    -1.7040    -5.8110 h1         1 1Y1       0.048200
     94 H41          8.5010    -3.5120    -4.1520 h1         1 1Y1       0.048200
     95 H41A         7.0730    -4.5620    -3.9830 h1         1 1Y1       0.048200
     96 H42          8.2950    -0.9910    -3.2420 hc         1 1Y1       0.059700
     97 H43         -8.2970    -5.2190    -0.3890 h1         1 1Y1       0.031700
     98 H43A        -8.3810    -4.0160    -1.6860 h1         1 1Y1       0.031700
     99 H43B        -7.6540    -5.6120    -2.0010 h1         1 1Y1       0.031700
    100 H44         -4.7140    -4.8540     0.2810 h1         1 1Y1       0.031700
    101 H44A        -6.2220    -5.6440     0.7860 h1         1 1Y1       0.031700
    102 H44B        -5.4080    -6.1590    -0.7120 h1         1 1Y1       0.031700
    103 H45         -7.5340     0.9630     0.9610 h1         1 1Y1       0.052700
    104 H45A        -6.9170    -0.6040     0.4910 h1         1 1Y1       0.052700
    105 H46          6.7230     0.8840    -2.6040 h1         1 1Y1       0.052700
    106 H46A         5.4960    -0.3380    -2.2150 h1         1 1Y1       0.052700
    107 H47         -5.4340    -4.4820    -2.7180 h1         1 1Y1       0.040700
    108 H47A        -4.6720    -3.3620    -1.5960 h1         1 1Y1       0.040700
    109 HN53         2.8150     2.5300     3.6760 hn         1 1Y1       0.343500
    110 C33          2.7570     0.4850     3.6690 c          1 1Y1       0.665700
    111 C48         -6.2900    -2.5000    -2.7190 c3         1 1Y1       0.168600
    112 N52          7.1860    -0.3340    -0.9440 nu         1 1Y1      -0.930200
    113 O59          5.4040     1.2270     5.2490 o          1 1Y1      -0.534000
    114 O60          5.0700     3.4640     4.0450 o          1 1Y1      -0.534000
    115 H34          7.1360     0.2740    -5.0070 hc         1 1Y1       0.055450
    116 H48         -5.6070    -2.1760    -3.5150 h1         1 1Y1       0.035200
    117 H48A        -7.2340    -2.8110    -3.1830 h1         1 1Y1       0.035200
@<TRIPOS>BOND
     1     1     2 ar  
     2     1    10 ar  
     3     1    61 1   
     4     2    22 ar  
     5     2    62 1   
     6     3    13 ar  
     7     3    21 ar  
     8     3    63 1   
     9     4    14 ar  
    10     4    21 ar  
    11     4    64 1   
    12     5     8 ar  
    13     5    23 ar  
    14     5    65 1   
    15     6    11 ar  
    16     6    25 ar  
    17     6    66 1   
    18     7    33 1   
    19     8    26 ar  
    20     8    67 1   
    21     9    12 ar  
    22     9    27 ar  
    23     9    68 1   
    24    10    30 ar  
    25    10    69 1   
    26    11    29 ar  
    27    11    70 1   
    28    12    32 ar  
    29    12    71 1   
    30    13    33 ar  
    31    13    72 1   
    32    14    33 ar  
    33    14    73 1   
    34    15    19 2   
    35    15    20 1   
    36    15    74 1   
    37    16    20 ar  
    38    16    29 ar  
    39    16    75 1   
    40    17    26 ar  
    41    17    31 ar  
    42    17    76 1   
    43    18    28 ar  
    44    18    32 ar  
    45    18    77 1   
    46    19    48 1   
    47    19    78 1   
    48    20    25 ar  
    49    21    22 1   
    50    22    24 ar  
    51    23    31 ar  
    52    23   110 1   
    53    24    30 ar  
    54    24    45 1   
    55    25    48 1   
    56    26    49 1   
    57    27    28 ar  
    58    27   112 1   
    59    28    53 1   
    60    29    58 1   
    61    30    59 1   
    62    31    58 1   
    63    32    60 1   
    64    34    40 1   
    65    34    42 1   
    66    34    81 1   
    67    34   115 1   
    68    35    41 1   
    69    35    42 1   
    70    35    82 1   
    71    35    83 1   
    72    36    38 1   
    73    36    49 1   
    74    36    84 1   
    75    36    85 1   
    76    37    39 1   
    77    37    49 1   
    78    37    86 1   
    79    37    87 1   
    80    38    50 1   
    81    38    88 1   
    82    38    89 1   
    83    39    50 1   
    84    39    90 1   
    85    39    91 1   
    86    40    57 1   
    87    40    92 1   
    88    40    93 1   
    89    41    57 1   
    90    41    94 1   
    91    41    95 1   
    92    42    46 1   
    93    42    96 1   
    94    43    52 1   
    95    43    97 1   
    96    43    98 1   
    97    43    99 1   
    98    44    52 1   
    99    44   100 1   
   100    44   101 1   
   101    44   102 1   
   102    45    50 1   
   103    45   103 1   
   104    45   104 1   
   105    46   105 1   
   106    46   106 1   
   107    46   112 1   
   108    47    52 1   
   109    47   107 1   
   110    47   108 1   
   111    47   111 1   
   112    48    79 1   
   113    51    60 1   
   114    51   109 1   
   115    51   110 1   
   116    53    54 1   
   117    53    56 1   
   118    55   110 2   
   119    59   111 1   
   120    60   113 2   
   121    60   114 2   
   122    80   112 1   
   123   111   116 1   
   124   111   117 1   
@<TRIPOS>SUBSTRUCTURE
     1 1Y1         1 TEMP              0 ****  ****    0 ROOT
