@<TRIPOS>MOLECULE
1Y1
  117   124     1     0     0
SMALL
bcc


@<TRIPOS>ATOM
      1 C1          -8.7290     0.6940    -3.3840 ca         1 1Y1      -0.086000
      2 C2          -8.6550     1.8700    -2.6630 ca         1 1Y1      -0.161000
      3 C3          -6.8650     3.7330    -0.1810 ca         1 1Y1      -0.104000
      4 C4          -9.2350     3.8890    -0.4870 ca         1 1Y1      -0.104000
      5 C5           0.4020     1.1670     3.0660 ca         1 1Y1      -0.019000
      6 C6          -0.0090    -3.8350    -1.4410 ca         1 1Y1      -0.139000
      7 CL6         -8.0620     7.1750     1.4400 cl         1 1Y1      -0.114400
      8 C7          -0.9160     1.3610     2.7180 ca         1 1Y1      -0.257000
      9 C8           6.9670     1.3880     0.6440 ca         1 1Y1      -0.265000
     10 C9          -8.2380    -0.4890    -2.8520 ca         1 1Y1      -0.221000
     11 C10          0.4430    -3.1200    -0.3500 ca         1 1Y1      -0.111000
     12 C11          6.1610     1.7060     1.6980 ca         1 1Y1       0.054000
     13 C12         -6.8630     4.9600     0.4660 ca         1 1Y1      -0.130500
     14 C13         -9.2500     5.1150     0.1600 ca         1 1Y1      -0.130500
     15 C14          0.7820    -1.7530    -4.2900 cc         1 1Y1      -0.187200
     16 C15          1.2240    -1.2990    -1.7660 ca         1 1Y1      -0.081000
     17 C16         -0.6210    -0.1920     0.9080 ca         1 1Y1      -0.307000
     18 C17          6.3250    -0.5420     2.5330 ca         1 1Y1       0.122000
     19 C18          0.1900    -2.8300    -4.8860 cd         1 1Y1      -0.110100
     20 C19          0.7740    -2.0100    -2.8850 ca         1 1Y1      -0.096800
     21 C20         -8.0490     3.1760    -0.6640 cp         1 1Y1      -0.043000
     22 C21         -8.0730     1.8850    -1.3930 cp         1 1Y1       0.015000
     23 C22          1.2460     0.2940     2.3780 ca         1 1Y1      -0.257600
     24 C23         -7.5650     0.7040    -0.8380 ca         1 1Y1      -0.101300
     25 C24          0.1590    -3.2690    -2.7030 ca         1 1Y1      -0.052200
     26 C25         -1.4740     0.6690     1.6240 ca         1 1Y1       0.265600
     27 C26          7.5050     0.0840     0.4670 ca         1 1Y1       0.323600
     28 C27          7.1530    -0.8750     1.4660 ca         1 1Y1      -0.316200
     29 C28          1.0490    -1.8670    -0.5250 ca         1 1Y1       0.060100
     30 C29         -7.6660    -0.4850    -1.5830 ca         1 1Y1       0.149100
     31 C30          0.6960    -0.3880     1.2790 ca         1 1Y1       0.240100
     32 C31          5.8330     0.7330     2.6520 ca         1 1Y1      -0.388500
     33 C32         -8.0580     5.6420     0.6310 ca         1 1Y1       0.031400
     34 C34          9.8240     1.1560    -3.7730 c6         1 1Y1      -0.112400
     35 C35          8.5130    -0.9360    -3.4690 c6         1 1Y1      -0.112400
     36 C36         -3.2590     0.5430    -0.0730 c6         1 1Y1       0.212800
     37 C37         -3.6730     1.6930     2.0060 c6         1 1Y1       0.212800
     38 C38         -4.6930     0.0530    -0.0790 c6         1 1Y1       0.156300
     39 C39         -5.1080     1.2010     1.9480 c6         1 1Y1       0.156300
     40 C40         10.4890     0.4820    -4.9620 c6         1 1Y1       0.131900
     41 C41          9.2530    -1.4830    -4.6800 c6         1 1Y1       0.131900
     42 C42          9.3650     0.1140    -2.7550 c6         1 1Y1      -0.079700
     43 C43         -8.1250    -4.9610     0.1630 c3         1 1Y1       0.149600
     44 C44         -6.0470    -4.7360     1.3050 c3         1 1Y1       0.149600
     45 C45         -6.9710     0.6750     0.5490 c3         1 1Y1       0.222100
     46 C46          8.6280     0.7920    -1.6110 c3         1 1Y1       0.223800
     47 C47         -6.2990    -3.7790    -0.8690 c3         1 1Y1       0.165800
     48 N49         -0.1830    -3.7380    -3.9380 na         1 1Y1      -0.171400
     49 N50         -2.7910     0.8000     1.2790 nh         1 1Y1      -0.669000
     50 N51         -5.5530     1.0060     0.5870 n3         1 1Y1      -0.726600
     51 N53          3.2470     1.1890     3.3530 ns         1 1Y1      -0.660300
     52 N54         -6.9640    -4.1240     0.3700 n3         1 1Y1      -0.705600
     53 N55          7.6200    -2.2310     1.4210 no         1 1Y1       0.331200
     54 O56          8.3650    -2.5660     0.5160 o          1 1Y1      -0.231500
     55 O57          3.2300    -0.9830     2.7440 o          1 1Y1      -0.543100
     56 O58          7.2600    -3.0030     2.2810 o          1 1Y1      -0.231500
     57 O61          9.6400    -0.4640    -5.5750 os         1 1Y1      -0.401600
     58 O62          1.5220    -1.2040     0.5900 os         1 1Y1      -0.230200
     59 O63         -7.1890    -1.5910    -0.9890 os         1 1Y1      -0.314900
     60 S64          4.7930     1.1600     3.9950 sy         1 1Y1       1.342900
     61 H1          -9.1730     0.6900    -4.3710 ha         1 1Y1       0.132000
     62 H2          -9.0340     2.7900    -3.0880 ha         1 1Y1       0.138000
     63 H3          -5.9350     3.1910    -0.2940 ha         1 1Y1       0.151500
     64 H4         -10.1700     3.4770    -0.8440 ha         1 1Y1       0.151500
     65 H5           0.7770     1.7060     3.9270 ha         1 1Y1       0.134000
     66 H6          -0.4770    -4.8020    -1.3110 ha         1 1Y1       0.136000
     67 H7          -1.4950     2.0610     3.2990 ha         1 1Y1       0.137000
     68 H8           7.2110     2.1630    -0.0670 ha         1 1Y1       0.142000
     69 H9          -8.3120    -1.4010    -3.4300 ha         1 1Y1       0.134000
     70 H10          0.3320    -3.5250     0.6480 ha         1 1Y1       0.152000
     71 H11          5.7880     2.7180     1.7840 ha         1 1Y1       0.150000
     72 H12         -5.9350     5.3780     0.8320 ha         1 1Y1       0.146000
     73 H13        -10.1810     5.6480     0.2970 ha         1 1Y1       0.146000
     74 H14          1.1770    -0.8840    -4.7910 ha         1 1Y1       0.158000
     75 H15          1.6980    -0.3310    -1.8690 ha         1 1Y1       0.148000
     76 H16         -0.9930    -0.7380     0.0560 ha         1 1Y1       0.148000
     77 H17          6.0800    -1.2940     3.2670 ha         1 1Y1       0.198000
     78 H18          0.0040    -3.0230    -5.9300 h4         1 1Y1       0.164000
     79 HN49        -0.6410    -4.6130    -4.1280 hn         1 1Y1       0.300700
     80 HN52         8.7030    -1.0830    -0.6330 hn         1 1Y1       0.480800
     81 H34A         8.9630     1.7380    -4.1180 hc         1 1Y1       0.055450
     82 H35          7.5660    -0.4830    -3.7830 hc         1 1Y1       0.055450
     83 H35A         8.2640    -1.7720    -2.8120 hc         1 1Y1       0.055450
     84 H36         -2.6500    -0.2120    -0.5600 h1         1 1Y1       0.049450
     85 H36A        -3.1840     1.4580    -0.6740 h1         1 1Y1       0.049450
     86 H37         -3.6080     2.7140     1.6090 h1         1 1Y1       0.049450
     87 H37A        -3.3910     1.7300     3.0560 h1         1 1Y1       0.049450
     88 H38         -4.9980    -0.0550    -1.1200 h1         1 1Y1       0.046200
     89 H38A        -4.7370    -0.9460     0.3840 h1         1 1Y1       0.046200
     90 H39         -5.1900     0.2770     2.5460 h1         1 1Y1       0.046200
     91 H39A        -5.7410     1.9520     2.4280 h1         1 1Y1       0.046200
     92 H40         10.7520     1.2170    -5.7240 h1         1 1Y1       0.048200
     93 H40A        11.4210    -0.0020    -4.6320 h1         1 1Y1       0.048200
     94 H41         10.1360    -2.0450    -4.3400 h1         1 1Y1       0.048200
     95 H41A         8.6190    -2.1740    -5.2380 h1         1 1Y1       0.048200
     96 H42         10.2590    -0.3790    -2.3490 hc         1 1Y1       0.059700
     97 H43         -8.6050    -5.1710     1.1190 h1         1 1Y1       0.031700
     98 H43A        -8.8640    -4.4620    -0.4650 h1         1 1Y1       0.031700
     99 H43B        -7.8830    -5.9280    -0.3080 h1         1 1Y1       0.031700
    100 H44         -5.2050    -4.0690     1.4960 h1         1 1Y1       0.031700
    101 H44A        -6.5500    -4.9170     2.2560 h1         1 1Y1       0.031700
    102 H44B        -5.6390    -5.6990     0.9570 h1         1 1Y1       0.031700
    103 H45         -7.4850     1.4210     1.1600 h1         1 1Y1       0.052700
    104 H45A        -7.1700    -0.2960     1.0210 h1         1 1Y1       0.052700
    105 H46          9.2520     1.5880    -1.1900 h1         1 1Y1       0.052700
    106 H46A         7.7200     1.2640    -1.9990 h1         1 1Y1       0.052700
    107 H47         -6.0870    -4.6660    -1.4910 h1         1 1Y1       0.040700
    108 H47A        -5.3310    -3.3320    -0.6280 h1         1 1Y1       0.040700
    109 HN53         2.8510     2.1110     3.2220 hn         1 1Y1       0.343500
    110 C33          2.6330     0.0690     2.8160 c          1 1Y1       0.732700
    111 C48         -7.0680    -2.7950    -1.7220 c3         1 1Y1       0.145400
    112 N52          8.2810    -0.1700    -0.5840 nu         1 1Y1      -0.736600
    113 O59          4.8620     0.1230     5.0040 o          1 1Y1      -0.604800
    114 O60          5.0400     2.5450     4.3530 o          1 1Y1      -0.604800
    115 H34         10.5270     1.8580    -3.3170 hc         1 1Y1       0.055450
    116 H48         -6.5110    -2.6310    -2.6510 h1         1 1Y1       0.035200
    117 H48A        -8.0560    -3.1810    -1.9990 h1         1 1Y1       0.035200
@<TRIPOS>BOND
     1     1     2 ar  
     2     1    10 ar  
     3     1    61 1   
     4     2    22 ar  
     5     2    62 1   
     6     3    13 ar  
     7     3    21 ar  
     8     3    63 1   
     9     4    14 ar  
    10     4    21 ar  
    11     4    64 1   
    12     5     8 ar  
    13     5    23 ar  
    14     5    65 1   
    15     6    11 ar  
    16     6    25 ar  
    17     6    66 1   
    18     7    33 1   
    19     8    26 ar  
    20     8    67 1   
    21     9    12 ar  
    22     9    27 ar  
    23     9    68 1   
    24    10    30 ar  
    25    10    69 1   
    26    11    29 ar  
    27    11    70 1   
    28    12    32 ar  
    29    12    71 1   
    30    13    33 ar  
    31    13    72 1   
    32    14    33 ar  
    33    14    73 1   
    34    15    19 2   
    35    15    20 1   
    36    15    74 1   
    37    16    20 ar  
    38    16    29 ar  
    39    16    75 1   
    40    17    26 ar  
    41    17    31 ar  
    42    17    76 1   
    43    18    28 ar  
    44    18    32 ar  
    45    18    77 1   
    46    19    48 1   
    47    19    78 1   
    48    20    25 ar  
    49    21    22 1   
    50    22    24 ar  
    51    23    31 ar  
    52    23   110 1   
    53    24    30 ar  
    54    24    45 1   
    55    25    48 1   
    56    26    49 1   
    57    27    28 ar  
    58    27   112 1   
    59    28    53 1   
    60    29    58 1   
    61    30    59 1   
    62    31    58 1   
    63    32    60 1   
    64    34    40 1   
    65    34    42 1   
    66    34    81 1   
    67    34   115 1   
    68    35    41 1   
    69    35    42 1   
    70    35    82 1   
    71    35    83 1   
    72    36    38 1   
    73    36    49 1   
    74    36    84 1   
    75    36    85 1   
    76    37    39 1   
    77    37    49 1   
    78    37    86 1   
    79    37    87 1   
    80    38    50 1   
    81    38    88 1   
    82    38    89 1   
    83    39    50 1   
    84    39    90 1   
    85    39    91 1   
    86    40    57 1   
    87    40    92 1   
    88    40    93 1   
    89    41    57 1   
    90    41    94 1   
    91    41    95 1   
    92    42    46 1   
    93    42    96 1   
    94    43    52 1   
    95    43    97 1   
    96    43    98 1   
    97    43    99 1   
    98    44    52 1   
    99    44   100 1   
   100    44   101 1   
   101    44   102 1   
   102    45    50 1   
   103    45   103 1   
   104    45   104 1   
   105    46   105 1   
   106    46   106 1   
   107    46   112 1   
   108    47    52 1   
   109    47   107 1   
   110    47   108 1   
   111    47   111 1   
   112    48    79 1   
   113    51    60 1   
   114    51   109 1   
   115    51   110 1   
   116    53    54 1   
   117    53    56 1   
   118    55   110 2   
   119    59   111 1   
   120    60   113 2   
   121    60   114 2   
   122    80   112 1   
   123   111   116 1   
   124   111   117 1   
@<TRIPOS>SUBSTRUCTURE
     1 1Y1         1 TEMP              0 ****  ****    0 ROOT
