@<TRIPOS>MOLECULE
1Y2
   25    25     1     0     0
SMALL
No Charge or Current Charge


@<TRIPOS>ATOM
      1 C30         -3.0060     0.3530     0.1970 c          1 1Y2       0.720000
      2 O31         -3.3570     0.6840    -0.9300 o          1 1Y2      -0.730000
      3 C32         -1.8670    -0.7460     0.3540 c3         1 1Y2       0.027500
      4 N34         -1.8790    -1.8790    -0.6440 n8         1 1Y2      -0.994200
      5 C42         -0.4420    -0.1050     0.5040 c6         1 1Y2      -0.086700
      6 C43          0.6050    -1.1100     1.0750 c6         1 1Y2      -0.071900
      7 C44          1.9790    -0.4290     1.3080 c6         1 1Y2      -0.122900
      8 C45          2.4920     0.2630     0.0220 c6         1 1Y2       0.173000
      9 F46          3.6740     0.9650     0.3150 f          1 1Y2      -0.140500
     10 F47          2.8410    -0.7130    -0.9300 f          1 1Y2      -0.140500
     11 C48          1.4580     1.2380    -0.5900 c6         1 1Y2      -0.122900
     12 C49          0.0860     0.5490    -0.8100 c6         1 1Y2      -0.071900
     13 H28         -2.0730    -1.2150     1.3260 h1         1 1Y2       0.046700
     14 H29         -1.8460    -1.4760    -1.5880 hn         1 1Y2       0.381000
     15 H39         -0.5650     0.6940     1.2490 hc         1 1Y2       0.069700
     16 H40          0.2440    -1.5320     2.0240 hc         1 1Y2       0.049450
     17 H41          0.7340    -1.9590     0.3890 hc         1 1Y2       0.049450
     18 H42          1.8860     0.3160     2.1110 hc         1 1Y2       0.053700
     19 H43          2.7120    -1.1700     1.6550 hc         1 1Y2       0.053700
     20 H44          1.3300     2.1000     0.0790 hc         1 1Y2       0.053700
     21 H45          1.8350     1.6370    -1.5410 hc         1 1Y2       0.053700
     22 H46          0.1820    -0.2080    -1.6000 hc         1 1Y2       0.049450
     23 H47         -0.6330     1.2920    -1.1800 hc         1 1Y2       0.049450
     24 H2          -1.0000    -2.4000    -0.5650 hn         1 1Y2       0.381000
     25 OXT         -3.5680     0.7500     1.2100 o          1 1Y2      -0.730000
@<TRIPOS>BOND
     1     1     2 1   
     2     1     3 1   
     3     1    25 1   
     4     3     4 1   
     5     3     5 1   
     6     3    13 1   
     7     4    14 1   
     8     4    24 1   
     9     5     6 1   
    10     5    12 1   
    11     5    15 1   
    12     6     7 1   
    13     6    16 1   
    14     6    17 1   
    15     7     8 1   
    16     7    18 1   
    17     7    19 1   
    18     8     9 1   
    19     8    10 1   
    20     8    11 1   
    21    11    12 1   
    22    11    20 1   
    23    11    21 1   
    24    12    22 1   
    25    12    23 1   
@<TRIPOS>SUBSTRUCTURE
     1 1Y2         1 TEMP              0 ****  ****    0 ROOT
