@<TRIPOS>MOLECULE
1Y2
   25    25     1     0     0
SMALL
abcg2


@<TRIPOS>ATOM
      1 C30         -2.8900     0.2890     0.1160 c          1 1Y2       0.720000
      2 O31         -3.3670     0.3780    -1.0330 o          1 1Y2      -0.730000
      3 C32         -1.8170    -0.7960     0.3630 c3         1 1Y2       0.027500
      4 N34         -1.8750    -1.8210    -0.6640 n8         1 1Y2      -0.994200
      5 C42         -0.4420    -0.1140     0.5420 c6         1 1Y2      -0.086700
      6 C43          0.6060    -1.0900     1.0780 c6         1 1Y2      -0.071900
      7 C44          1.9600    -0.4150     1.2910 c6         1 1Y2      -0.122900
      8 C45          2.4290     0.2670     0.0290 c6         1 1Y2       0.173000
      9 F46          3.6140     0.9210     0.2620 f          1 1Y2      -0.140500
     10 F47          2.7350    -0.6860    -0.9170 f          1 1Y2      -0.140500
     11 C48          1.4130     1.2270    -0.5390 c6         1 1Y2      -0.122900
     12 C49          0.0620     0.5430    -0.7430 c6         1 1Y2      -0.071900
     13 H28         -2.0520    -1.2670     1.3270 h1         1 1Y2       0.046700
     14 H29         -1.9340    -1.3740    -1.5700 hn         1 1Y2       0.381000
     15 H39         -0.5770     0.6690     1.2990 hc         1 1Y2       0.069700
     16 H40          0.2690    -1.5120     2.0280 hc         1 1Y2       0.049450
     17 H41          0.7250    -1.9360     0.3930 hc         1 1Y2       0.049450
     18 H42          1.8660     0.3470     2.0690 hc         1 1Y2       0.053700
     19 H43          2.7090    -1.1350     1.6290 hc         1 1Y2       0.053700
     20 H44          1.3030     2.0560     0.1660 hc         1 1Y2       0.053700
     21 H45          1.7840     1.6480    -1.4780 hc         1 1Y2       0.053700
     22 H46          0.1530    -0.2120    -1.5300 hc         1 1Y2       0.049450
     23 H47         -0.6510     1.2840    -1.1080 hc         1 1Y2       0.049450
     24 H2          -1.0340    -2.3850    -0.6630 hn         1 1Y2       0.381000
     25 OXT         -3.1670     1.0140     1.0930 o          1 1Y2      -0.730000
@<TRIPOS>BOND
     1     1     2 1   
     2     1     3 1   
     3     1    25 1   
     4     3     4 1   
     5     3     5 1   
     6     3    13 1   
     7     4    14 1   
     8     4    24 1   
     9     5     6 1   
    10     5    12 1   
    11     5    15 1   
    12     6     7 1   
    13     6    16 1   
    14     6    17 1   
    15     7     8 1   
    16     7    18 1   
    17     7    19 1   
    18     8     9 1   
    19     8    10 1   
    20     8    11 1   
    21    11    12 1   
    22    11    20 1   
    23    11    21 1   
    24    12    22 1   
    25    12    23 1   
@<TRIPOS>SUBSTRUCTURE
     1 1Y2         1 TEMP              0 ****  ****    0 ROOT
