@<TRIPOS>MOLECULE
1Y3
   32    33     1     0     0
SMALL
No Charge or Current Charge


@<TRIPOS>ATOM
      1 C1           5.0700    -1.3550     0.6090 c3         1 1Y3      -0.090100
      2 C2           4.1880    -0.5440    -0.3540 c3         1 1Y3       0.165600
      3 O3           3.1310     0.0500     0.4180 os         1 1Y3      -0.443000
      4 C4           2.1860     0.8930    -0.2920 c5         1 1Y3       0.167300
      5 C6           1.2100     1.5030     0.7600 c5         1 1Y3      -0.075400
      6 C7          -0.1200     1.4900    -0.0280 c5         1 1Y3       0.166500
      7 C9          -1.4280     1.6920     0.8120 c6         1 1Y3       0.175800
      8 N10         -2.6640     1.3720     0.0280 n7         1 1Y3      -0.865400
      9 C11         -2.6000    -0.0080    -0.6300 c6         1 1Y3       0.024500
     10 C13         -1.2560    -0.2430    -1.3970 c6         1 1Y3       0.195800
     11 N14         -0.0780     0.1120    -0.5660 n3         1 1Y3      -0.685600
     12 C15          1.2520     0.0230    -1.2180 c5         1 1Y3       0.139800
     13 C16         -2.8980    -1.2510     0.3080 c          1 1Y3       0.709000
     14 O17         -2.9880    -1.0530     1.5150 o          1 1Y3      -0.734500
     15 H1           4.4850    -2.1460     1.0930 hc         1 1Y3       0.037033
     16 H2           5.8960    -1.8240     0.0620 hc         1 1Y3       0.037033
     17 H3           5.4950    -0.7060     1.3830 hc         1 1Y3       0.037033
     18 H4           4.7950     0.2320    -0.8400 h1         1 1Y3       0.009700
     19 H5           3.7890    -1.2100    -1.1290 h1         1 1Y3       0.009700
     20 H6           2.7230     1.6660    -0.8590 h1         1 1Y3       0.013700
     21 H7           1.1440     0.8870     1.6650 hc         1 1Y3       0.051700
     22 H8           1.5030     2.5130     1.0640 hc         1 1Y3       0.051700
     23 H9          -0.1050     2.2310    -0.8410 h1         1 1Y3       0.011700
     24 H10         -1.3840     1.0460     1.7010 h1         1 1Y3       0.034700
     25 H11         -1.4780     2.7310     1.1710 h1         1 1Y3       0.034700
     26 H12         -3.4020    -0.0390    -1.3830 h1         1 1Y3       0.038700
     27 H13         -1.1950    -1.2900    -1.7270 h1         1 1Y3       0.023700
     28 H14         -1.2630     0.3790    -2.3050 h1         1 1Y3       0.023700
     29 H16          1.2230     0.4530    -2.2290 h1         1 1Y3       0.026200
     30 H17          1.5820    -1.0200    -1.3080 h1         1 1Y3       0.026200
     31 H18         -3.4640     1.3820     0.6730 hn         1 1Y3       0.416000
     32 OXT         -3.5090    -2.1770    -0.2110 o          1 1Y3      -0.734500
@<TRIPOS>BOND
     1     1     2 1   
     2     1    15 1   
     3     1    16 1   
     4     1    17 1   
     5     2     3 1   
     6     2    18 1   
     7     2    19 1   
     8     3     4 1   
     9     4     5 1   
    10     4    12 1   
    11     4    20 1   
    12     5     6 1   
    13     5    21 1   
    14     5    22 1   
    15     6     7 1   
    16     6    11 1   
    17     6    23 1   
    18     7     8 1   
    19     7    24 1   
    20     7    25 1   
    21     8     9 1   
    22     8    31 1   
    23     9    10 1   
    24     9    13 1   
    25     9    26 1   
    26    10    11 1   
    27    10    27 1   
    28    10    28 1   
    29    11    12 1   
    30    12    29 1   
    31    12    30 1   
    32    13    14 1   
    33    13    32 1   
@<TRIPOS>SUBSTRUCTURE
     1 1Y3         1 TEMP              0 ****  ****    0 ROOT
