@<TRIPOS>MOLECULE
1Y3
   32    33     1     0     0
SMALL
bcc


@<TRIPOS>ATOM
      1 C1           4.7770    -1.4830     0.7170 c3         1 1Y3      -0.090100
      2 C2           3.9990    -0.6170    -0.2490 c3         1 1Y3       0.142400
      3 O3           2.9040    -0.0410     0.4270 os         1 1Y3      -0.396600
      4 C4           2.1540     0.8590    -0.3580 c5         1 1Y3       0.144100
      5 C6           1.2240     1.6670     0.5660 c5         1 1Y3      -0.075400
      6 C7          -0.1550     1.5050    -0.0570 c5         1 1Y3       0.166500
      7 C9          -1.3470     1.5620     0.8700 c6         1 1Y3       0.175800
      8 N10         -2.5450     1.2620     0.0980 n7         1 1Y3      -0.810200
      9 C11         -2.4860    -0.0410    -0.5520 c6         1 1Y3       0.024500
     10 C13         -1.2470    -0.1110    -1.4390 c6         1 1Y3       0.195800
     11 N14         -0.0760     0.1840    -0.6500 n3         1 1Y3      -0.685600
     12 C15          1.1900     0.1710    -1.3430 c5         1 1Y3       0.139800
     13 C16         -2.5990    -1.2600     0.4020 c          1 1Y3       0.919600
     14 O17         -3.0120    -1.0400     1.5580 o          1 1Y3      -0.839800
     15 H1           4.1620    -2.2940     1.1090 hc         1 1Y3       0.037033
     16 H2           5.6310    -1.9290     0.2070 hc         1 1Y3       0.037033
     17 H3           5.1550    -0.9000     1.5570 hc         1 1Y3       0.037033
     18 H4           4.6490     0.1690    -0.6590 h1         1 1Y3       0.009700
     19 H5           3.6630    -1.2210    -1.1030 h1         1 1Y3       0.009700
     20 H6           2.8380     1.5170    -0.9090 h1         1 1Y3       0.013700
     21 H7           1.2410     1.2320     1.5680 hc         1 1Y3       0.051700
     22 H8           1.5240     2.7120     0.6510 hc         1 1Y3       0.051700
     23 H9          -0.2940     2.2710    -0.8470 h1         1 1Y3       0.011700
     24 H10         -1.1790     0.8620     1.7010 h1         1 1Y3       0.034700
     25 H11         -1.4420     2.5630     1.2980 h1         1 1Y3       0.034700
     26 H12         -3.3540    -0.1050    -1.2220 h1         1 1Y3       0.038700
     27 H13         -1.1670    -1.1080    -1.8700 h1         1 1Y3       0.023700
     28 H14         -1.3470     0.6050    -2.2750 h1         1 1Y3       0.023700
     29 H16          1.1490     0.7570    -2.2780 h1         1 1Y3       0.026200
     30 H17          1.4960    -0.8440    -1.6110 h1         1 1Y3       0.026200
     31 H18         -3.3380     1.2630     0.7250 hn         1 1Y3       0.360800
     32 OXT         -2.3270    -2.3770    -0.0840 o          1 1Y3      -0.839800
@<TRIPOS>BOND
     1     1     2 1   
     2     1    15 1   
     3     1    16 1   
     4     1    17 1   
     5     2     3 1   
     6     2    18 1   
     7     2    19 1   
     8     3     4 1   
     9     4     5 1   
    10     4    12 1   
    11     4    20 1   
    12     5     6 1   
    13     5    21 1   
    14     5    22 1   
    15     6     7 1   
    16     6    11 1   
    17     6    23 1   
    18     7     8 1   
    19     7    24 1   
    20     7    25 1   
    21     8     9 1   
    22     8    31 1   
    23     9    10 1   
    24     9    13 1   
    25     9    26 1   
    26    10    11 1   
    27    10    27 1   
    28    10    28 1   
    29    11    12 1   
    30    12    29 1   
    31    12    30 1   
    32    13    14 1   
    33    13    32 1   
@<TRIPOS>SUBSTRUCTURE
     1 1Y3         1 TEMP              0 ****  ****    0 ROOT
