@<TRIPOS>MOLECULE
1Y4
   25    26     1     0     0
SMALL
bcc


@<TRIPOS>ATOM
      1 N19         -0.8740     1.4770    -0.9150 n7         1 1Y4      -0.808200
      2 C20          0.2050     1.7300     0.0300 c6         1 1Y4       0.174800
      3 C21          1.3410     0.7750    -0.2570 c5         1 1Y4       0.169500
      4 C23          2.5130     0.7680     0.7130 c5         1 1Y4      -0.075400
      5 C24          3.0920    -0.6550     0.5620 c5         1 1Y4      -0.079400
      6 C25          2.0330    -1.4210    -0.2520 c5         1 1Y4       0.169800
      7 N26          0.8550    -0.5870    -0.1600 n3         1 1Y4      -0.698600
      8 C27         -0.1950    -0.8530    -1.1110 c6         1 1Y4       0.196800
      9 C28         -1.3570     0.1020    -0.8660 c6         1 1Y4       0.023500
     10 C30         -2.1670    -0.2680     0.4060 c          1 1Y4       0.918600
     11 O31         -2.5990     0.6760     1.0990 o          1 1Y4      -0.841300
     12 H23          0.5470     2.7620    -0.0940 h1         1 1Y4       0.031200
     13 H24         -0.1000     1.6090     1.0790 h1         1 1Y4       0.031200
     14 H25          1.7170     0.9800    -1.2800 h1         1 1Y4       0.011700
     15 H26          3.2410     1.5480     0.4930 hc         1 1Y4       0.037200
     16 H27          2.1530     0.9330     1.7320 hc         1 1Y4       0.037200
     17 H28          4.0490    -0.6480     0.0410 hc         1 1Y4       0.027200
     18 H29          3.2640    -1.1170     1.5350 hc         1 1Y4       0.027200
     19 H30          2.3690    -1.5370    -1.2960 h1         1 1Y4       0.020200
     20 H31          1.8360    -2.4250     0.1330 h1         1 1Y4       0.020200
     21 H33          0.1710    -0.7350    -2.1480 h1         1 1Y4       0.023200
     22 H34         -0.5440    -1.8790    -1.0040 h1         1 1Y4       0.023200
     23 H35         -2.0520    -0.0230    -1.7080 h1         1 1Y4       0.038700
     24 OXT         -2.3810    -1.4820     0.5990 o          1 1Y4      -0.841300
     25 H2          -1.6490     2.0850    -0.6830 hn         1 1Y4       0.359800
@<TRIPOS>BOND
     1     1     2 1   
     2     1     9 1   
     3     1    25 1   
     4     2     3 1   
     5     2    12 1   
     6     2    13 1   
     7     3     4 1   
     8     3     7 1   
     9     3    14 1   
    10     4     5 1   
    11     4    15 1   
    12     4    16 1   
    13     5     6 1   
    14     5    17 1   
    15     5    18 1   
    16     6     7 1   
    17     6    19 1   
    18     6    20 1   
    19     7     8 1   
    20     8     9 1   
    21     8    21 1   
    22     8    22 1   
    23     9    10 1   
    24     9    23 1   
    25    10    11 1   
    26    10    24 1   
@<TRIPOS>SUBSTRUCTURE
     1 1Y4         1 TEMP              0 ****  ****    0 ROOT
