@<TRIPOS>MOLECULE
1Y4
   25    26     1     0     0
SMALL
No Charge or Current Charge


@<TRIPOS>ATOM
      1 N19         -0.9550     1.5190    -0.9150 n7         1 1Y4      -0.863400
      2 C20          0.2290     1.7910    -0.0390 c6         1 1Y4       0.174800
      3 C21          1.4020     0.7800    -0.2900 c5         1 1Y4       0.169500
      4 C23          2.5500     0.7890     0.7500 c5         1 1Y4      -0.075400
      5 C24          3.1870    -0.6280     0.5640 c5         1 1Y4      -0.079400
      6 C25          2.1450    -1.4130    -0.2940 c5         1 1Y4       0.169800
      7 N26          0.9190    -0.6080    -0.1270 n3         1 1Y4      -0.698600
      8 C27         -0.2180    -0.9440    -1.0210 c6         1 1Y4       0.196800
      9 C28         -1.4090     0.0590    -0.8510 c6         1 1Y4       0.023500
     10 C30         -2.2740    -0.3560     0.4100 c          1 1Y4       0.708000
     11 O31         -2.3850     0.4530     1.3260 o          1 1Y4      -0.736000
     12 H23          0.5840     2.8180    -0.2100 h1         1 1Y4       0.031200
     13 H24         -0.0780     1.7270     1.0160 h1         1 1Y4       0.031200
     14 H25          1.7940     0.9420    -1.3050 h1         1 1Y4       0.011700
     15 H26          3.2650     1.5990     0.5730 hc         1 1Y4       0.037200
     16 H27          2.1630     0.9120     1.7690 hc         1 1Y4       0.037200
     17 H28          4.1560    -0.5780     0.0560 hc         1 1Y4       0.027200
     18 H29          3.3560    -1.1120     1.5320 hc         1 1Y4       0.027200
     19 H30          2.4550    -1.4410    -1.3490 h1         1 1Y4       0.020200
     20 H31          2.0150    -2.4480     0.0500 h1         1 1Y4       0.020200
     21 H33          0.1170    -0.9070    -2.0680 h1         1 1Y4       0.023200
     22 H34         -0.5680    -1.9690    -0.8330 h1         1 1Y4       0.023200
     23 H35         -2.0820    -0.1030    -1.7060 h1         1 1Y4       0.038700
     24 OXT         -3.1630    -1.1740     0.2030 o          1 1Y4      -0.736000
     25 H2          -1.7340     2.1090    -0.5940 hn         1 1Y4       0.415000
@<TRIPOS>BOND
     1     1     2 1   
     2     1     9 1   
     3     1    25 1   
     4     2     3 1   
     5     2    12 1   
     6     2    13 1   
     7     3     4 1   
     8     3     7 1   
     9     3    14 1   
    10     4     5 1   
    11     4    15 1   
    12     4    16 1   
    13     5     6 1   
    14     5    17 1   
    15     5    18 1   
    16     6     7 1   
    17     6    19 1   
    18     6    20 1   
    19     7     8 1   
    20     8     9 1   
    21     8    21 1   
    22     8    22 1   
    23     9    10 1   
    24     9    23 1   
    25    10    11 1   
    26    10    24 1   
@<TRIPOS>SUBSTRUCTURE
     1 1Y4         1 TEMP              0 ****  ****    0 ROOT
