@<TRIPOS>MOLECULE
1Y5
   24    25     1     0     0
SMALL
No Charge or Current Charge


@<TRIPOS>ATOM
      1 N32         -1.5620     2.1910     0.4630 n8         1 1Y5      -0.988200
      2 C33         -1.2980     0.9230    -0.2480 c6         1 1Y5       0.210800
      3 C34         -2.3460    -0.1270     0.1960 c6         1 1Y5      -0.078400
      4 C35         -2.0020    -1.5190    -0.3670 c6         1 1Y5      -0.071400
      5 C36         -0.6470    -1.9980     0.1940 c6         1 1Y5      -0.032100
      6 C37          0.4600    -0.9420     0.0890 ca         1 1Y5      -0.067300
      7 C38          1.8010    -1.3590     0.1990 ca         1 1Y5      -0.113000
      8 C39          2.8490    -0.4300     0.0980 ca         1 1Y5      -0.108000
      9 C40          2.5610     0.9250    -0.1190 ca         1 1Y5      -0.114000
     10 C41          1.2270     1.3530    -0.2240 ca         1 1Y5      -0.100000
     11 C42          0.1610     0.4330    -0.1050 ca         1 1Y5      -0.061300
     12 H36         -0.9770     2.9230     0.0480 hn         1 1Y5       0.391000
     13 H37         -1.4640     1.1270    -1.3170 h1         1 1Y5       0.021700
     14 H38         -2.3880    -0.1800     1.2930 hc         1 1Y5       0.049200
     15 H39         -3.3460     0.1740    -0.1430 hc         1 1Y5       0.049200
     16 H40         -2.7900    -2.2390    -0.1080 hc         1 1Y5       0.042700
     17 H41         -1.9590    -1.4770    -1.4640 hc         1 1Y5       0.042700
     18 H42         -0.7700    -2.2770     1.2500 hc         1 1Y5       0.048700
     19 H43         -0.3430    -2.9150    -0.3300 hc         1 1Y5       0.048700
     20 H44          2.0330    -2.4100     0.3590 ha         1 1Y5       0.108000
     21 H45          3.8810    -0.7620     0.1810 ha         1 1Y5       0.111000
     22 H46          3.3720     1.6460    -0.2070 ha         1 1Y5       0.111000
     23 H47          1.0260     2.4060    -0.4010 ha         1 1Y5       0.105000
     24 H2          -2.5180     2.4920     0.2470 hn         1 1Y5       0.391000
@<TRIPOS>BOND
     1     1     2 1   
     2     1    12 1   
     3     1    24 1   
     4     2     3 1   
     5     2    11 1   
     6     2    13 1   
     7     3     4 1   
     8     3    14 1   
     9     3    15 1   
    10     4     5 1   
    11     4    16 1   
    12     4    17 1   
    13     5     6 1   
    14     5    18 1   
    15     5    19 1   
    16     6     7 ar  
    17     6    11 ar  
    18     7     8 ar  
    19     7    20 1   
    20     8     9 ar  
    21     8    21 1   
    22     9    10 ar  
    23     9    22 1   
    24    10    11 ar  
    25    10    23 1   
@<TRIPOS>SUBSTRUCTURE
     1 1Y5         1 TEMP              0 ****  ****    0 ROOT
