@<TRIPOS>MOLECULE
1Y5
   24    25     1     0     0
SMALL
abcg2


@<TRIPOS>ATOM
      1 N32         -1.5000     2.1600     0.4350 n8         1 1Y5      -0.988200
      2 C33         -1.2870     0.9100    -0.2900 c6         1 1Y5       0.210800
      3 C34         -2.3000    -0.1200     0.1910 c6         1 1Y5      -0.078400
      4 C35         -1.9830    -1.4980    -0.3630 c6         1 1Y5      -0.071400
      5 C36         -0.6480    -1.9760     0.1840 c6         1 1Y5      -0.032100
      6 C37          0.4350    -0.9340     0.0700 ca         1 1Y5      -0.067300
      7 C38          1.7680    -1.3340     0.1820 ca         1 1Y5      -0.113000
      8 C39          2.8070    -0.4230     0.1040 ca         1 1Y5      -0.108000
      9 C40          2.5180     0.9210    -0.0930 ca         1 1Y5      -0.114000
     10 C41          1.1990     1.3280    -0.2050 ca         1 1Y5      -0.100000
     11 C42          0.1410     0.4200    -0.1220 ca         1 1Y5      -0.061300
     12 H36         -0.9930     2.9140    -0.0110 hn         1 1Y5       0.391000
     13 H37         -1.4490     1.0360    -1.3740 h1         1 1Y5       0.021700
     14 H38         -2.2890    -0.1470     1.2860 hc         1 1Y5       0.049200
     15 H39         -3.3020     0.1990    -0.1080 hc         1 1Y5       0.049200
     16 H40         -2.7690    -2.2090    -0.1010 hc         1 1Y5       0.042700
     17 H41         -1.9490    -1.4580    -1.4560 hc         1 1Y5       0.042700
     18 H42         -0.7690    -2.2430     1.2400 hc         1 1Y5       0.048700
     19 H43         -0.3280    -2.8920    -0.3200 hc         1 1Y5       0.048700
     20 H44          1.9870    -2.3860     0.3330 ha         1 1Y5       0.108000
     21 H45          3.8330    -0.7580     0.1920 ha         1 1Y5       0.111000
     22 H46          3.3160     1.6490    -0.1630 ha         1 1Y5       0.111000
     23 H47          1.0020     2.3810    -0.3690 ha         1 1Y5       0.105000
     24 H2          -2.4760     2.4180     0.3420 hn         1 1Y5       0.391000
@<TRIPOS>BOND
     1     1     2 1   
     2     1    12 1   
     3     1    24 1   
     4     2     3 1   
     5     2    11 1   
     6     2    13 1   
     7     3     4 1   
     8     3    14 1   
     9     3    15 1   
    10     4     5 1   
    11     4    16 1   
    12     4    17 1   
    13     5     6 1   
    14     5    18 1   
    15     5    19 1   
    16     6     7 ar  
    17     6    11 ar  
    18     7     8 ar  
    19     7    20 1   
    20     8     9 ar  
    21     8    21 1   
    22     9    10 ar  
    23     9    22 1   
    24    10    11 ar  
    25    10    23 1   
@<TRIPOS>SUBSTRUCTURE
     1 1Y5         1 TEMP              0 ****  ****    0 ROOT
