@<TRIPOS>MOLECULE
1Y6
   14    14     1     0     0
SMALL
No Charge or Current Charge


@<TRIPOS>ATOM
      1 CBH          2.2330    -0.0410    -0.0060 c          1 1Y6       0.714600
      2 OAF          2.7990    -1.1260    -0.0070 o          1 1Y6      -0.720000
      3 CBJ          0.7140    -0.0120     0.0050 ca         1 1Y6      -0.148600
      4 CAP         -0.0320    -1.2160     0.0130 ca         1 1Y6      -0.065000
      5 CAN         -1.4380    -1.1870     0.0230 ca         1 1Y6      -0.186000
      6 CBI         -2.1130     0.0410     0.0250 ca         1 1Y6       0.128000
      7 FAM         -3.4630     0.0660     0.0340 f          1 1Y6      -0.215000
      8 CAO         -1.3930     1.2430     0.0170 ca         1 1Y6      -0.186000
      9 CAQ          0.0140     1.2190     0.0070 ca         1 1Y6      -0.065000
     10 H26          0.4760    -2.1790     0.0110 ha         1 1Y6       0.129000
     11 H27         -2.0030    -2.1160     0.0290 ha         1 1Y6       0.102000
     12 H28         -1.9210     2.1920     0.0190 ha         1 1Y6       0.102000
     13 H29          0.5580     2.1610     0.0010 ha         1 1Y6       0.129000
     14 OXT          2.8390     1.0220    -0.0120 o          1 1Y6      -0.720000
@<TRIPOS>BOND
     1     1     2 1   
     2     1     3 1   
     3     1    14 1   
     4     3     4 ar  
     5     3     9 ar  
     6     4     5 ar  
     7     4    10 1   
     8     5     6 ar  
     9     5    11 1   
    10     6     7 1   
    11     6     8 ar  
    12     8     9 ar  
    13     8    12 1   
    14     9    13 1   
@<TRIPOS>SUBSTRUCTURE
     1 1Y6         1 TEMP              0 ****  ****    0 ROOT
