@<TRIPOS>MOLECULE
1Y6
   14    14     1     0     0
SMALL
abcg2


@<TRIPOS>ATOM
      1 CBH          2.2200    -0.0410    -0.0060 c          1 1Y6       0.714600
      2 OAF          2.7560    -1.1650    -0.0060 o          1 1Y6      -0.720000
      3 CBJ          0.6970    -0.0120     0.0060 ca         1 1Y6      -0.148600
      4 CAP         -0.0390    -1.1940     0.0130 ca         1 1Y6      -0.065000
      5 CAN         -1.4270    -1.1810     0.0220 ca         1 1Y6      -0.186000
      6 CBI         -2.0730     0.0400     0.0250 ca         1 1Y6       0.128000
      7 FAM         -3.4170     0.0660     0.0340 f          1 1Y6      -0.215000
      8 CAO         -1.3820     1.2360     0.0170 ca         1 1Y6      -0.186000
      9 CAQ          0.0060     1.1970     0.0080 ca         1 1Y6      -0.065000
     10 H26          0.4800    -2.1430     0.0120 ha         1 1Y6       0.129000
     11 H27         -1.9960    -2.1030     0.0280 ha         1 1Y6       0.102000
     12 H28         -1.9150     2.1780     0.0190 ha         1 1Y6       0.102000
     13 H29          0.5610     2.1260     0.0020 ha         1 1Y6       0.129000
     14 OXT          2.7970     1.0630    -0.0140 o          1 1Y6      -0.720000
@<TRIPOS>BOND
     1     1     2 1   
     2     1     3 1   
     3     1    14 1   
     4     3     4 ar  
     5     3     9 ar  
     6     4     5 ar  
     7     4    10 1   
     8     5     6 ar  
     9     5    11 1   
    10     6     7 1   
    11     6     8 ar  
    12     8     9 ar  
    13     8    12 1   
    14     9    13 1   
@<TRIPOS>SUBSTRUCTURE
     1 1Y6         1 TEMP              0 ****  ****    0 ROOT
