@<TRIPOS>MOLECULE
1Y9
   33    33     1     0     0
SMALL
bcc


@<TRIPOS>ATOM
      1 O1           1.6420     2.3890     0.2350 oh         1 1Y9      -0.596800
      2 C2           1.1670     1.4690    -0.7230 c5         1 1Y9       0.157100
      3 C3           0.1150     0.5680    -0.0220 c5         1 1Y9      -0.143800
      4 C4          -0.4890     1.3150     1.1500 c          1 1Y9       0.613900
      5 O5          -1.5140     1.9440     1.1030 o          1 1Y9      -0.521100
      6 C6          -0.9730     0.1390    -1.0260 c3         1 1Y9      -0.013200
      7 C7          -1.8920    -0.9060    -0.4770 c2         1 1Y9      -0.187200
      8 C8          -3.2050    -0.8140    -0.2510 c2         1 1Y9      -0.093400
      9 C9          -3.9600    -1.9740     0.3330 c3         1 1Y9      -0.057400
     10 C10         -4.0480     0.3940    -0.5270 c3         1 1Y9      -0.057400
     11 C11          0.9550    -0.5990     0.4380 c2         1 1Y9      -0.126200
     12 C12          2.1230    -0.6490    -0.1970 c2         1 1Y9      -0.135400
     13 C13          3.1930    -1.6730    -0.0730 c3         1 1Y9       0.193600
     14 O14          2.8100    -2.6790     0.8280 oh         1 1Y9      -0.592800
     15 C15          2.2620     0.4910    -1.1650 c5         1 1Y9      -0.079200
     16 H1           2.2370     3.0050    -0.2030 ho         1 1Y9       0.408000
     17 H2           0.7190     1.9940    -1.5740 h1         1 1Y9       0.046700
     18 H3           0.0820     1.2410     2.0940 h4         1 1Y9       0.000200
     19 H6          -1.5160     1.0220    -1.3640 hc         1 1Y9       0.051700
     20 H7          -0.4630    -0.2650    -1.9080 hc         1 1Y9       0.051700
     21 H8          -1.4130    -1.8500    -0.2290 ha         1 1Y9       0.117000
     22 H9          -3.3160    -2.8350     0.5120 hc         1 1Y9       0.040533
     23 H10         -4.4260    -1.6960     1.2830 hc         1 1Y9       0.040533
     24 H11         -4.7720    -2.2890    -0.3270 hc         1 1Y9       0.040533
     25 H12         -4.9130     0.1210    -1.1360 hc         1 1Y9       0.040533
     26 H13         -4.4420     0.8050     0.4060 hc         1 1Y9       0.040533
     27 H14         -3.5160     1.1920    -1.0390 hc         1 1Y9       0.040533
     28 H15          0.5960    -1.3230     1.1580 ha         1 1Y9       0.158000
     29 H18          3.4020    -2.0760    -1.0760 h1         1 1Y9       0.024200
     30 H19          4.1180    -1.1690     0.2420 h1         1 1Y9       0.024200
     31 H20          3.5430    -3.2930     0.9180 ho         1 1Y9       0.407000
     32 H21          2.1030     0.1460    -2.1920 hc         1 1Y9       0.054700
     33 H22          3.2520     0.9580    -1.1490 hc         1 1Y9       0.054700
@<TRIPOS>BOND
     1     1     2 1   
     2     1    16 1   
     3     2     3 1   
     4     2    15 1   
     5     2    17 1   
     6     3     4 1   
     7     3     6 1   
     8     3    11 1   
     9     4     5 2   
    10     4    18 1   
    11     6     7 1   
    12     6    19 1   
    13     6    20 1   
    14     7     8 2   
    15     7    21 1   
    16     8     9 1   
    17     8    10 1   
    18     9    22 1   
    19     9    23 1   
    20     9    24 1   
    21    10    25 1   
    22    10    26 1   
    23    10    27 1   
    24    11    12 2   
    25    11    28 1   
    26    12    13 1   
    27    12    15 1   
    28    13    14 1   
    29    13    29 1   
    30    13    30 1   
    31    14    31 1   
    32    15    32 1   
    33    15    33 1   
@<TRIPOS>SUBSTRUCTURE
     1 1Y9         1 TEMP              0 ****  ****    0 ROOT
