@<TRIPOS>MOLECULE
1Y9
   33    33     1     0     0
SMALL
No Charge or Current Charge


@<TRIPOS>ATOM
      1 O1           1.7730     2.5270     0.0140 oh         1 1Y9      -0.659000
      2 C2           1.1970     1.5100    -0.8090 c5         1 1Y9       0.180300
      3 C3           0.1180     0.6460    -0.0490 c5         1 1Y9      -0.143800
      4 C4          -0.5080     1.5170     1.0820 c          1 1Y9       0.613900
      5 O5          -1.6550     1.9530     1.1230 o          1 1Y9      -0.521100
      6 C6          -0.9640     0.0750    -1.0160 c3         1 1Y9      -0.013200
      7 C7          -1.9030    -0.9410    -0.3780 c2         1 1Y9      -0.237200
      8 C8          -3.2300    -0.8490    -0.1600 c2         1 1Y9      -0.093400
      9 C9          -4.0190    -1.9800     0.4750 c3         1 1Y9      -0.057400
     10 C10         -4.1200     0.3390    -0.4980 c3         1 1Y9      -0.057400
     11 C11          0.9660    -0.4790     0.5350 c2         1 1Y9      -0.176200
     12 C12          2.1340    -0.6100    -0.0960 c2         1 1Y9      -0.135400
     13 C13          3.1990    -1.6500     0.1840 c3         1 1Y9       0.216800
     14 O14          2.8530    -2.8800    -0.4580 oh         1 1Y9      -0.655000
     15 C15          2.2740     0.4360    -1.1820 c5         1 1Y9      -0.079200
     16 H1           2.4910     2.9430    -0.5120 ho         1 1Y9       0.447000
     17 H2           0.7750     1.9740    -1.7120 h1         1 1Y9       0.046700
     18 H3           0.1810     1.7120     1.9350 h4         1 1Y9       0.000200
     19 H6          -1.5140     0.9050    -1.4730 hc         1 1Y9       0.051700
     20 H7          -0.4630    -0.4170    -1.8590 hc         1 1Y9       0.051700
     21 H8          -1.3880    -1.8610    -0.0960 ha         1 1Y9       0.167000
     22 H9          -3.3810    -2.8390     0.7160 hc         1 1Y9       0.040533
     23 H10         -4.4970    -1.6550     1.4070 hc         1 1Y9       0.040533
     24 H11         -4.8080    -2.3380    -0.1980 hc         1 1Y9       0.040533
     25 H12         -4.8980     0.0530    -1.2160 hc         1 1Y9       0.040533
     26 H13         -4.6240     0.7160     0.4010 hc         1 1Y9       0.040533
     27 H14         -3.5760     1.1830    -0.9320 hc         1 1Y9       0.040533
     28 H15          0.6530    -1.1340     1.3520 ha         1 1Y9       0.208000
     29 H18          4.1700    -1.2900    -0.1810 h1         1 1Y9       0.024200
     30 H19          3.2870    -1.7980     1.2690 h1         1 1Y9       0.024200
     31 H20          3.5700    -3.5180    -0.2460 ho         1 1Y9       0.446000
     32 H21          2.0830    -0.0070    -2.1660 hc         1 1Y9       0.054700
     33 H22          3.2840     0.8610    -1.2120 hc         1 1Y9       0.054700
@<TRIPOS>BOND
     1     1     2 1   
     2     1    16 1   
     3     2     3 1   
     4     2    15 1   
     5     2    17 1   
     6     3     4 1   
     7     3     6 1   
     8     3    11 1   
     9     4     5 2   
    10     4    18 1   
    11     6     7 1   
    12     6    19 1   
    13     6    20 1   
    14     7     8 2   
    15     7    21 1   
    16     8     9 1   
    17     8    10 1   
    18     9    22 1   
    19     9    23 1   
    20     9    24 1   
    21    10    25 1   
    22    10    26 1   
    23    10    27 1   
    24    11    12 2   
    25    11    28 1   
    26    12    13 1   
    27    12    15 1   
    28    13    14 1   
    29    13    29 1   
    30    13    30 1   
    31    14    31 1   
    32    15    32 1   
    33    15    33 1   
@<TRIPOS>SUBSTRUCTURE
     1 1Y9         1 TEMP              0 ****  ****    0 ROOT
