@<TRIPOS>MOLECULE
1YA
   55    57     1     0     0
SMALL
No Charge or Current Charge


@<TRIPOS>ATOM
      1 N1          -7.1210    -1.7280    -0.2490 nc         1 1YA      -0.752300
      2 C2          -7.8120    -1.0130     0.5920 cd         1 1YA       0.714800
      3 NA2         -9.1220    -1.1710     0.5110 nv         1 1YA      -1.041200
      4 N3          -7.3520    -0.1520     1.5110 ns         1 1YA      -0.435400
      5 C4          -6.0350     0.0960     1.6920 c          1 1YA       0.576200
      6 O4          -5.6260     0.8800     2.5360 o          1 1YA      -0.555000
      7 C4A         -5.1770    -0.6820     0.7600 cd         1 1YA      -0.204200
      8 N5          -3.7790    -0.5540     0.8010 nu         1 1YA      -0.716200
      9 C6          -2.9370    -1.1750    -0.2680 c6         1 1YA       0.147500
     10 C7          -3.6180    -2.4740    -0.8490 c6         1 1YA       0.235800
     11 N8          -5.0840    -2.3030    -1.0260 nu         1 1YA      -0.826200
     12 C8A         -5.7790    -1.5390    -0.1500 cc         1 1YA       0.416600
     13 C9          -2.6580    -0.1430    -1.4000 c3         1 1YA       0.080000
     14 N10         -1.9700     1.0930    -0.9460 n          1 1YA      -0.241400
     15 C11          2.2420     1.1300    -0.0670 ca         1 1YA      -0.108600
     16 C12          1.3290     1.8590     0.7240 ca         1 1YA      -0.066500
     17 C13         -0.0500     1.8220     0.4560 ca         1 1YA      -0.135500
     18 C14         -0.5710     1.0130    -0.5750 ca         1 1YA      -0.084000
     19 C15          0.3480     0.3470    -1.4130 ca         1 1YA      -0.135500
     20 C16          1.7300     0.3810    -1.1520 ca         1 1YA      -0.066500
     21 N            4.5640     0.4590    -0.5650 ns         1 1YA      -0.418900
     22 CA           6.0360     0.3440    -0.4180 c3         1 1YA      -0.051300
     23 CB           6.4520    -0.9520     0.3290 c3         1 1YA      -0.054400
     24 CG           5.9360    -1.0540     1.7890 c3         1 1YA      -0.202400
     25 CD           6.5030    -2.3170     2.4640 c          1 1YA       0.712000
     26 OE1          5.8770    -3.3610     2.3580 o          1 1YA      -0.760500
     27 OE2          7.5810    -2.2340     3.0340 o          1 1YA      -0.760500
     28 CT           6.7200     0.4320    -1.8160 c          1 1YA       0.715000
     29 O2           6.2930    -0.2730    -2.7210 o          1 1YA      -0.742000
     30 O1           7.5960     1.2700    -1.9790 o          1 1YA      -0.742000
     31 C18         -2.7560     2.2720    -0.8970 c          1 1YA       0.606900
     32 O5          -2.3200     3.3870    -0.6230 o          1 1YA      -0.576100
     33 O            4.1590     1.8640     1.1820 o          1 1YA      -0.638100
     34 H1          -9.4130    -1.6790    -0.3150 hn         1 1YA       0.485000
     35 H2          -9.7040    -0.3820     0.7630 hn         1 1YA       0.485000
     36 H3          -7.9900     0.3280     2.1220 hn         1 1YA       0.322500
     37 H5          -3.3660     0.1020     1.4740 hn         1 1YA       0.477000
     38 H7          -1.9590    -1.4680     0.1440 h1         1 1YA       0.096700
     39 H8          -3.1380    -2.7540    -1.7990 h1         1 1YA       0.050700
     40 H9          -3.4360    -3.3000    -0.1460 h1         1 1YA       0.050700
     41 H10         -2.0640    -0.6310    -2.1800 h1         1 1YA       0.044200
     42 H11         -3.6170     0.1200    -1.8660 h1         1 1YA       0.044200
     43 H12          1.6870     2.4670     1.5530 ha         1 1YA       0.140000
     44 H13         -0.7170     2.4030     1.0880 ha         1 1YA       0.111000
     45 H14          0.0070    -0.2040    -2.2840 ha         1 1YA       0.111000
     46 H15          2.3880    -0.1720    -1.8170 ha         1 1YA       0.140000
     47 H16          4.1320    -0.0460    -1.3280 hn         1 1YA       0.292500
     48 H17          6.3960     1.2030     0.1610 h1         1 1YA       0.061700
     49 H18          6.1050    -1.8250    -0.2380 hc         1 1YA       0.049700
     50 H19          7.5480    -1.0050     0.3410 hc         1 1YA       0.049700
     51 H20          6.2990    -0.1520     2.2980 hc         1 1YA       0.011700
     52 H21          4.8430    -1.1160     1.7240 hc         1 1YA       0.011700
     53 H24         -3.8160     2.0940    -1.1550 h5         1 1YA      -0.015800
     54 H4          -5.6400    -3.0410    -1.4520 hn         1 1YA       0.493000
     55 C17          3.7240     1.1920     0.2530 c          1 1YA       0.602700
@<TRIPOS>BOND
     1     1     2 2   
     2     1    12 1   
     3     2     3 1   
     4     2     4 1   
     5     3    34 1   
     6     3    35 1   
     7     4     5 1   
     8     4    36 1   
     9     5     6 2   
    10     5     7 1   
    11     7     8 1   
    12     7    12 2   
    13     8     9 1   
    14     8    37 1   
    15     9    10 1   
    16     9    13 1   
    17     9    38 1   
    18    10    11 1   
    19    10    39 1   
    20    10    40 1   
    21    11    12 1   
    22    11    54 1   
    23    13    14 1   
    24    13    41 1   
    25    13    42 1   
    26    14    18 1   
    27    14    31 1   
    28    15    16 ar  
    29    15    20 ar  
    30    15    55 1   
    31    16    17 ar  
    32    16    43 1   
    33    17    18 ar  
    34    17    44 1   
    35    18    19 ar  
    36    19    20 ar  
    37    19    45 1   
    38    20    46 1   
    39    21    22 1   
    40    21    47 1   
    41    21    55 1   
    42    22    23 1   
    43    22    28 1   
    44    22    48 1   
    45    23    24 1   
    46    23    49 1   
    47    23    50 1   
    48    24    25 1   
    49    24    51 1   
    50    24    52 1   
    51    25    26 1   
    52    25    27 1   
    53    28    29 1   
    54    28    30 1   
    55    31    32 2   
    56    31    53 1   
    57    33    55 2   
@<TRIPOS>SUBSTRUCTURE
     1 1YA         1 TEMP              0 ****  ****    0 ROOT
