@<TRIPOS>MOLECULE
1YA
   55    57     1     0     0
SMALL
abcg2


@<TRIPOS>ATOM
      1 N1          -6.6190    -1.2160    -0.0820 nc         1 1YA      -0.752300
      2 C2          -7.0220    -0.1640     0.5750 cd         1 1YA       0.714800
      3 NA2         -8.3310     0.1620     0.5860 nv         1 1YA      -1.041200
      4 N3          -6.1780     0.6090     1.2970 ns         1 1YA      -0.435400
      5 C4          -4.8090     0.3600     1.4110 c          1 1YA       0.576200
      6 O4          -4.0940     1.1340     2.0540 o          1 1YA      -0.555000
      7 C4A         -4.3880    -0.8080     0.7450 cd         1 1YA      -0.204200
      8 N5          -3.0440    -1.2280     0.7830 nu         1 1YA      -0.716200
      9 C6          -2.6050    -1.7910    -0.4750 c6         1 1YA       0.147500
     10 C7          -3.4980    -2.9970    -0.7650 c6         1 1YA       0.235800
     11 N8          -4.8900    -2.6050    -0.7020 nu         1 1YA      -0.826200
     12 C8A         -5.3050    -1.5320     0.0040 cc         1 1YA       0.416600
     13 C9          -2.6570    -0.8140    -1.6670 c3         1 1YA       0.080000
     14 N10         -2.2420     0.5300    -1.3090 n          1 1YA      -0.241400
     15 C11          1.7130     1.1470    -0.0200 ca         1 1YA      -0.108600
     16 C12          0.6420     1.5790     0.7580 ca         1 1YA      -0.066500
     17 C13         -0.6610     1.3660     0.3460 ca         1 1YA      -0.135500
     18 C14         -0.9120     0.7490    -0.8770 ca         1 1YA      -0.084000
     19 C15          0.1520     0.3380    -1.6710 ca         1 1YA      -0.135500
     20 C16          1.4560     0.5290    -1.2400 ca         1 1YA      -0.066500
     21 N            3.9980     0.4500     0.2040 ns         1 1YA      -0.418900
     22 CA           5.4250     0.6680     0.2790 c3         1 1YA      -0.051300
     23 CB           6.1580    -0.6610     0.4400 c3         1 1YA      -0.054400
     24 CG           5.7800    -1.4160     1.7040 c3         1 1YA      -0.202400
     25 CD           6.5870    -2.6990     1.9730 c          1 1YA       0.712000
     26 OE1          6.1370    -3.4540     2.8620 o          1 1YA      -0.760500
     27 OE2          7.6260    -2.8840     1.3090 o          1 1YA      -0.760500
     28 CT           5.9490     1.4570    -0.9520 c          1 1YA       0.715000
     29 O2           5.1540     1.6710    -1.8830 o          1 1YA      -0.742000
     30 O1           7.1470     1.7990    -0.8870 o          1 1YA      -0.742000
     31 C18         -3.1230     1.5560    -1.3890 c          1 1YA       0.606900
     32 O5          -2.8780     2.7190    -1.1470 o          1 1YA      -0.576100
     33 O            3.3730     2.4540     1.0450 o          1 1YA      -0.638100
     34 H1          -8.9080    -0.2740    -0.1120 hn         1 1YA       0.485000
     35 H2          -8.6120     1.0900     0.8580 hn         1 1YA       0.485000
     36 H3          -6.5290     1.4310     1.7700 hn         1 1YA       0.322500
     37 H5          -2.4320    -0.5050     1.1340 hn         1 1YA       0.477000
     38 H7          -1.5830    -2.1500    -0.3460 h1         1 1YA       0.096700
     39 H8          -3.2910    -3.3970    -1.7590 h1         1 1YA       0.050700
     40 H9          -3.2750    -3.7870    -0.0430 h1         1 1YA       0.050700
     41 H10         -2.0360    -1.2030    -2.4760 h1         1 1YA       0.044200
     42 H11         -3.6690    -0.7470    -2.0680 h1         1 1YA       0.044200
     43 H12          0.8270     2.0690     1.7050 ha         1 1YA       0.140000
     44 H13         -1.4830     1.6680     0.9820 ha         1 1YA       0.111000
     45 H14         -0.0310    -0.1190    -2.6350 ha         1 1YA       0.111000
     46 H15          2.2720     0.2310    -1.8870 ha         1 1YA       0.140000
     47 H16          3.6910    -0.3500    -0.3270 hn         1 1YA       0.292500
     48 H17          5.6220     1.2700     1.1700 h1         1 1YA       0.061700
     49 H18          5.9780    -1.2900    -0.4410 hc         1 1YA       0.049700
     50 H19          7.2260    -0.4510     0.4450 hc         1 1YA       0.049700
     51 H20          5.9100    -0.7520     2.5690 hc         1 1YA       0.011700
     52 H21          4.7160    -1.6690     1.7010 hc         1 1YA       0.011700
     53 H24         -4.1150     1.2150    -1.7220 h5         1 1YA      -0.015800
     54 H4          -5.5570    -3.0540    -1.3070 hn         1 1YA       0.493000
     55 C17          3.1070     1.4170     0.4470 c          1 1YA       0.602700
@<TRIPOS>BOND
     1     1     2 2   
     2     1    12 1   
     3     2     3 1   
     4     2     4 1   
     5     3    34 1   
     6     3    35 1   
     7     4     5 1   
     8     4    36 1   
     9     5     6 2   
    10     5     7 1   
    11     7     8 1   
    12     7    12 2   
    13     8     9 1   
    14     8    37 1   
    15     9    10 1   
    16     9    13 1   
    17     9    38 1   
    18    10    11 1   
    19    10    39 1   
    20    10    40 1   
    21    11    12 1   
    22    11    54 1   
    23    13    14 1   
    24    13    41 1   
    25    13    42 1   
    26    14    18 1   
    27    14    31 1   
    28    15    16 ar  
    29    15    20 ar  
    30    15    55 1   
    31    16    17 ar  
    32    16    43 1   
    33    17    18 ar  
    34    17    44 1   
    35    18    19 ar  
    36    19    20 ar  
    37    19    45 1   
    38    20    46 1   
    39    21    22 1   
    40    21    47 1   
    41    21    55 1   
    42    22    23 1   
    43    22    28 1   
    44    22    48 1   
    45    23    24 1   
    46    23    49 1   
    47    23    50 1   
    48    24    25 1   
    49    24    51 1   
    50    24    52 1   
    51    25    26 1   
    52    25    27 1   
    53    28    29 1   
    54    28    30 1   
    55    31    32 2   
    56    31    53 1   
    57    33    55 2   
@<TRIPOS>SUBSTRUCTURE
     1 1YA         1 TEMP              0 ****  ****    0 ROOT
