@<TRIPOS>MOLECULE
1YC
   67    73     1     0     0
SMALL
No Charge or Current Charge


@<TRIPOS>ATOM
      1 OAC         49.9770    34.7230    15.8380 o          1 1YC      -0.575000
      2 CBC         48.8960    35.2100    15.5310 c          1 1YC       0.526500
      3 NAT         48.8060    36.3450    14.7860 ns         1 1YC      -0.454400
      4 CBA         47.6330    36.9210    14.4360 cc         1 1YC       0.692800
      5 NAA         47.7300    38.0250    13.7160 nv         1 1YC      -1.060200
      6 NAS         46.4210    36.5110    14.7330 nd         1 1YC      -0.665100
      7 CBG         46.4240    35.3360    15.4880 cd         1 1YC       0.155400
      8 CBE         47.5580    34.6840    15.8970 cc         1 1YC       0.124500
      9 NAR         47.2400    33.5720    16.6430 nc         1 1YC      -0.609000
     10 CAL         45.9040    33.5430    16.6720 cd         1 1YC       0.463400
     11 NBQ         45.3600    34.6200    15.9790 na         1 1YC      -0.175500
     12 CBO         43.9450    34.9310    15.8360 c5         1 1YC       0.294300
     13 OAX         43.3370    34.9150    17.1570 os         1 1YC      -0.460000
     14 CBK         41.9320    34.5360    17.0400 c5         1 1YC       0.123300
     15 CAN         41.6060    33.2480    17.8670 c3         1 1YC       0.229600
     16 OP3         42.1440    32.0670    17.2430 os         1 1YC      -0.623400
     17 P2          41.2850    30.7010    17.1990 p5         1 1YC       1.396800
     18 O2          40.4310    30.9870    15.8570 os         1 1YC      -0.595400
     19 OP2         40.4010    30.5750    18.3920 o          1 1YC      -0.803000
     20 OP1         42.1720    29.5180    17.0390 o          1 1YC      -0.803000
     21 CBI         41.6440    34.4410    15.5090 c5         1 1YC       0.126300
     22 OAE         41.2690    35.7290    14.9720 oh         1 1YC      -0.691000
     23 CBM         43.0530    33.9480    15.0230 c5         1 1YC       0.211300
     24 OAZ         43.1460    34.1040    13.5750 os         1 1YC      -0.571400
     25 PBS         44.1360    33.1080    12.7780 p5         1 1YC       1.396800
     26 OAH         45.3550    32.7910    13.5690 o          1 1YC      -0.808500
     27 OAI         44.4660    33.6220    11.4190 o          1 1YC      -0.808500
     28 O5          43.1830    31.8100    12.6940 os         1 1YC      -0.628400
     29 C5          42.1710    31.6930    11.6770 c3         1 1YC       0.227600
     30 C4          40.8460    31.0590    12.2350 c5         1 1YC       0.156300
     31 O4          40.9880    29.6470    12.5610 os         1 1YC      -0.464000
     32 C3          40.2920    31.6920    13.5420 c5         1 1YC       0.133300
     33 O3          38.8980    31.4190    13.7580 oh         1 1YC      -0.748000
     34 C2          41.1640    30.9430    14.5960 c5         1 1YC       0.160300
     35 C1          41.2910    29.4970    13.9750 c5         1 1YC       0.306300
     36 N9          42.5510    28.7550    14.0860 na         1 1YC      -0.283300
     37 C8          43.8170    29.2780    14.3890 cc         1 1YC       0.471700
     38 N7          44.7630    28.3160    14.3860 nd         1 1YC      -0.562100
     39 C7          44.0410    27.1580    14.0840 ca         1 1YC      -0.058600
     40 C9          42.7040    27.4100    13.9030 ca         1 1YC       0.145500
     41 N3          41.8220    26.4340    13.6030 nb         1 1YC      -0.210000
     42 C10         42.3420    25.1890    13.4880 ca         1 1YC       0.144900
     43 N1          43.6400    24.8340    13.6430 nb         1 1YC      -0.330000
     44 C6          44.4910    25.8270    13.9460 ca         1 1YC       0.433900
     45 N6          45.7940    25.4640    14.0990 nv         1 1YC      -1.087900
     46 H1          49.6720    36.7800    14.5110 hn         1 1YC       0.296500
     47 H2          46.8540    38.3240    13.3050 hn         1 1YC       0.480500
     48 H3          48.5470    38.1250    13.1250 hn         1 1YC       0.480500
     49 H4          45.2820    32.8090    17.1730 h5         1 1YC       0.105100
     50 H5          43.8760    35.9390    15.4070 h2         1 1YC       0.098700
     51 H6          41.3370    35.3440    17.4840 h1         1 1YC       0.036700
     52 H7          42.0110    33.3620    18.8810 h1         1 1YC       0.027200
     53 H8          40.5130    33.1780    17.9540 h1         1 1YC       0.027200
     54 H10         40.8550    33.7060    15.3200 h1         1 1YC       0.050700
     55 H11         40.3270    35.8850    15.2080 ho         1 1YC       0.471000
     56 H12         43.2830    32.9190    15.3160 h1         1 1YC       0.079700
     57 H14         42.5370    31.0740    10.8480 h1         1 1YC       0.030200
     58 H15         41.9210    32.6790    11.2660 h1         1 1YC       0.030200
     59 H16         40.1030    31.1430    11.4310 h1         1 1YC       0.056700
     60 H17         40.4700    32.7740    13.5390 h1         1 1YC       0.048700
     61 H18         38.8590    31.2150    14.7270 ho         1 1YC       0.530000
     62 H19         42.1390    31.4030    14.7280 h1         1 1YC       0.084700
     63 H20         40.5280    28.8510    14.4280 h2         1 1YC       0.097700
     64 H21         43.9900    30.3280    14.5930 h5         1 1YC       0.114800
     65 H22         41.6430    24.3900    13.2440 h5         1 1YC       0.017100
     66 H23         46.0870    24.5690    13.7150 hn         1 1YC       0.494000
     67 H24         46.4860    26.2090    14.1120 hn         1 1YC       0.494000
@<TRIPOS>BOND
     1     1     2 2   
     2     2     3 1   
     3     2     8 1   
     4     3     4 1   
     5     3    46 1   
     6     4     5 1   
     7     4     6 2   
     8     5    47 1   
     9     5    48 1   
    10     6     7 1   
    11     7     8 2   
    12     7    11 1   
    13     8     9 1   
    14     9    10 2   
    15    10    11 1   
    16    10    49 1   
    17    11    12 1   
    18    12    13 1   
    19    12    23 1   
    20    12    50 1   
    21    13    14 1   
    22    14    15 1   
    23    14    21 1   
    24    14    51 1   
    25    15    16 1   
    26    15    52 1   
    27    15    53 1   
    28    16    17 1   
    29    17    18 1   
    30    17    19 1   
    31    17    20 1   
    32    18    34 1   
    33    21    22 1   
    34    21    23 1   
    35    21    54 1   
    36    22    55 1   
    37    23    24 1   
    38    23    56 1   
    39    24    25 1   
    40    25    26 1   
    41    25    27 1   
    42    25    28 1   
    43    28    29 1   
    44    29    30 1   
    45    29    57 1   
    46    29    58 1   
    47    30    31 1   
    48    30    32 1   
    49    30    59 1   
    50    31    35 1   
    51    32    33 1   
    52    32    34 1   
    53    32    60 1   
    54    33    61 1   
    55    34    35 1   
    56    34    62 1   
    57    35    36 1   
    58    35    63 1   
    59    36    37 1   
    60    36    40 1   
    61    37    38 2   
    62    37    64 1   
    63    38    39 1   
    64    39    40 ar  
    65    39    44 ar  
    66    40    41 ar  
    67    41    42 ar  
    68    42    43 ar  
    69    42    65 1   
    70    43    44 ar  
    71    44    45 1   
    72    45    66 1   
    73    45    67 1   
@<TRIPOS>SUBSTRUCTURE
     1 1YC         1 TEMP              0 ****  ****    0 ROOT
