@<TRIPOS>MOLECULE
1YC
   67    73     1     0     0
SMALL
abcg2


@<TRIPOS>ATOM
      1 OAC         49.3820    32.7560    15.1940 o          1 1YC      -0.575000
      2 CBC         48.4750    33.5890    15.2010 c          1 1YC       0.526500
      3 NAT         48.7230    34.9020    14.7500 ns         1 1YC      -0.454400
      4 CBA         47.8070    35.9190    14.6930 cc         1 1YC       0.692800
      5 NAA         48.2520    37.1250    14.2710 nv         1 1YC      -1.060200
      6 NAS         46.5520    35.7710    15.0620 nd         1 1YC      -0.665100
      7 CBG         46.2650    34.5320    15.5030 cd         1 1YC       0.155400
      8 CBE         47.1200    33.4410    15.6070 cc         1 1YC       0.124500
      9 NAR         46.4330    32.3330    16.0760 nc         1 1YC      -0.609000
     10 CAL         45.2030    32.7420    16.2440 cd         1 1YC       0.463400
     11 NBQ         45.0430    34.0810    15.9250 na         1 1YC      -0.175500
     12 CBO         43.8090    34.8310    15.8920 c5         1 1YC       0.294300
     13 OAX         43.1720    34.7580    17.1600 os         1 1YC      -0.460000
     14 CBK         41.7510    34.5290    17.0040 c5         1 1YC       0.123300
     15 CAN         41.3530    33.1760    17.5690 c3         1 1YC       0.229600
     16 OP3         42.1110    32.1470    16.9350 os         1 1YC      -0.623400
     17 P2          41.7120    30.5720    16.9990 p5         1 1YC       1.396800
     18 O2          40.7140    30.4270    15.7010 os         1 1YC      -0.595400
     19 OP2         40.8630    30.2780    18.1860 o          1 1YC      -0.803000
     20 OP1         42.9800    29.8400    16.7250 o          1 1YC      -0.803000
     21 CBI         41.4650    34.7320    15.5120 c5         1 1YC       0.126300
     22 OAE         41.2550    36.1030    15.1980 oh         1 1YC      -0.691000
     23 CBM         42.7820    34.2940    14.8840 c5         1 1YC       0.211300
     24 OAZ         42.9620    34.7740    13.5700 os         1 1YC      -0.571400
     25 PBS         43.6480    33.8150    12.4310 p5         1 1YC       1.396800
     26 OAH         44.9590    33.3030    12.9190 o          1 1YC      -0.808500
     27 OAI         43.5210    34.5730    11.1550 o          1 1YC      -0.808500
     28 O5          42.6640    32.5190    12.4380 os         1 1YC      -0.628400
     29 C5          41.4820    32.4280    11.6460 c3         1 1YC       0.227600
     30 C4          40.5960    31.3210    12.1870 c5         1 1YC       0.156300
     31 O4          41.3000    30.0540    12.1860 os         1 1YC      -0.464000
     32 C3          40.1250    31.5280    13.6210 c5         1 1YC       0.133300
     33 O3          38.8560    30.9070    13.7830 oh         1 1YC      -0.748000
     34 C2          41.1920    30.7910    14.4220 c5         1 1YC       0.160300
     35 C1          41.5140    29.5960    13.5140 c5         1 1YC       0.306300
     36 N9          42.8660    29.1040    13.6510 na         1 1YC      -0.283300
     37 C8          44.0380    29.8110    13.4800 cc         1 1YC       0.471700
     38 N7          45.1050    29.1060    13.7670 nd         1 1YC      -0.562100
     39 C7          44.6180    27.8720    14.1640 ca         1 1YC      -0.058600
     40 C9          43.2260    27.8550    14.1010 ca         1 1YC       0.145500
     41 N3          42.4360    26.8270    14.4280 nb         1 1YC      -0.210000
     42 C10         43.1370    25.7720    14.8400 ca         1 1YC       0.144900
     43 N1          44.4650    25.6510    14.9520 nb         1 1YC      -0.330000
     44 C6          45.2450    26.6980    14.6190 ca         1 1YC       0.433900
     45 N6          46.5780    26.5850    14.7450 nv         1 1YC      -1.087900
     46 H1          49.6720    35.0800    14.4470 hn         1 1YC       0.296500
     47 H2          47.5490    37.8130    14.0530 hn         1 1YC       0.480500
     48 H3          49.1200    37.1930    13.7650 hn         1 1YC       0.480500
     49 H4          44.3760    32.1470    16.5940 h5         1 1YC       0.105100
     50 H5          44.0800    35.8590    15.6480 h2         1 1YC       0.098700
     51 H6          41.2230    35.2910    17.5820 h1         1 1YC       0.036700
     52 H7          41.5510    33.1580    18.6420 h1         1 1YC       0.027200
     53 H8          40.2820    33.0310    17.4110 h1         1 1YC       0.027200
     54 H10         40.6230    34.1250    15.1780 h1         1 1YC       0.050700
     55 H11         40.4280    36.3830    15.6110 ho         1 1YC       0.471000
     56 H12         42.8210    33.2090    14.9120 h1         1 1YC       0.079700
     57 H14         41.7560    32.2040    10.6140 h1         1 1YC       0.030200
     58 H15         40.9240    33.3680    11.6610 h1         1 1YC       0.030200
     59 H16         39.7320    31.2270    11.5260 h1         1 1YC       0.056700
     60 H17         40.0720    32.5860    13.8820 h1         1 1YC       0.048700
     61 H18         38.7360    30.7470    14.7300 ho         1 1YC       0.530000
     62 H19         42.0750    31.4180    14.5000 h1         1 1YC       0.084700
     63 H20         40.8580    28.7560    13.7450 h2         1 1YC       0.097700
     64 H21         44.0300    30.8330    13.1360 h5         1 1YC       0.114800
     65 H22         42.5620    24.8960    15.1240 h5         1 1YC       0.017100
     66 H23         46.9810    25.7120    15.0410 hn         1 1YC       0.494000
     67 H24         47.1840    27.3360    14.4640 hn         1 1YC       0.494000
@<TRIPOS>BOND
     1     1     2 2   
     2     2     3 1   
     3     2     8 1   
     4     3     4 1   
     5     3    46 1   
     6     4     5 1   
     7     4     6 2   
     8     5    47 1   
     9     5    48 1   
    10     6     7 1   
    11     7     8 2   
    12     7    11 1   
    13     8     9 1   
    14     9    10 2   
    15    10    11 1   
    16    10    49 1   
    17    11    12 1   
    18    12    13 1   
    19    12    23 1   
    20    12    50 1   
    21    13    14 1   
    22    14    15 1   
    23    14    21 1   
    24    14    51 1   
    25    15    16 1   
    26    15    52 1   
    27    15    53 1   
    28    16    17 1   
    29    17    18 1   
    30    17    19 1   
    31    17    20 1   
    32    18    34 1   
    33    21    22 1   
    34    21    23 1   
    35    21    54 1   
    36    22    55 1   
    37    23    24 1   
    38    23    56 1   
    39    24    25 1   
    40    25    26 1   
    41    25    27 1   
    42    25    28 1   
    43    28    29 1   
    44    29    30 1   
    45    29    57 1   
    46    29    58 1   
    47    30    31 1   
    48    30    32 1   
    49    30    59 1   
    50    31    35 1   
    51    32    33 1   
    52    32    34 1   
    53    32    60 1   
    54    33    61 1   
    55    34    35 1   
    56    34    62 1   
    57    35    36 1   
    58    35    63 1   
    59    36    37 1   
    60    36    40 1   
    61    37    38 2   
    62    37    64 1   
    63    38    39 1   
    64    39    40 ar  
    65    39    44 ar  
    66    40    41 ar  
    67    41    42 ar  
    68    42    43 ar  
    69    42    65 1   
    70    43    44 ar  
    71    44    45 1   
    72    45    66 1   
    73    45    67 1   
@<TRIPOS>SUBSTRUCTURE
     1 1YC         1 TEMP              0 ****  ****    0 ROOT
