@<TRIPOS>MOLECULE
1YD
   67    73     1     0     0
SMALL
No Charge or Current Charge


@<TRIPOS>ATOM
      1 OAC         16.3880     5.7840    25.9020 o          1 1YD      -0.556000
      2 CBC         16.0050     4.6380    25.7050 c          1 1YD       0.525500
      3 NAT         14.7970     4.1980    26.1490 ns         1 1YD      -0.459400
      4 CBA         14.3390     2.9430    25.9510 cc         1 1YD       0.714800
      5 NAA         13.1490     2.6780    26.4540 nv         1 1YD      -1.053200
      6 NAS         14.9420     1.9600    25.3170 nd         1 1YD      -0.698100
      7 CBG         16.1990     2.3290    24.8310 cd         1 1YD       0.122400
      8 CBE         16.7480     3.5730    24.9850 cc         1 1YD       0.100500
      9 NAR         17.9930     3.6310    24.4010 nc         1 1YD      -0.631000
     10 CAL         18.2000     2.4140    23.8900 cd         1 1YD       0.449400
     11 NBQ         17.1120     1.5750    24.1290 na         1 1YD      -0.184500
     12 CBO         16.9800     0.1750    23.7360 c5         1 1YD       0.266300
     13 CBI         15.6830    -0.1840    22.9420 c5         1 1YD       0.083300
     14 OAG         14.5340    -0.3160    23.8070 oh         1 1YD      -0.712000
     15 OAX         18.0830    -0.2190    22.8850 os         1 1YD      -0.432000
     16 CBK         17.5860    -1.0720    21.8190 c5         1 1YD       0.106300
     17 CAN         18.5470    -2.2610    21.5630 c3         1 1YD       0.226600
     18 OAV         19.6510    -1.8400    20.7430 os         1 1YD      -0.605400
     19 PBR         20.4160    -2.9780    19.9020 p5         1 1YD       1.406800
     20 O3          19.3470    -3.1510    18.6990 os         1 1YD      -0.607400
     21 OAH         21.7470    -2.5360    19.3890 o          1 1YD      -0.816000
     22 OAD         20.5350    -4.2340    20.6950 o          1 1YD      -0.816000
     23 CBM         16.1760    -1.5230    22.3100 c5         1 1YD       0.233300
     24 OAZ         15.3420    -2.0310    21.2110 os         1 1YD      -0.596400
     25 PBS         14.6280    -1.1770    20.0290 p5         1 1YD       1.415800
     26 OAI         13.8670     0.0030    20.5280 o          1 1YD      -0.818000
     27 OAE         13.7580    -2.0590    19.2000 o          1 1YD      -0.818000
     28 O5          15.9200    -0.7250    19.1900 os         1 1YD      -0.618400
     29 C5          16.5840    -1.6650    18.3330 c3         1 1YD       0.240600
     30 C4          18.0150    -1.1270    18.0910 c5         1 1YD       0.093300
     31 O4          18.0570    -0.1880    16.9850 os         1 1YD      -0.431000
     32 C3          19.0770    -2.1630    17.6500 c5         1 1YD       0.193300
     33 C2          20.2230    -1.1240    17.4110 c5         1 1YD       0.080300
     34 O2          21.4030    -1.6950    16.8130 oh         1 1YD      -0.732000
     35 C1          19.4360    -0.0860    16.5390 c5         1 1YD       0.316300
     36 N9          19.8760     1.3040    16.6430 na         1 1YD      -0.312300
     37 C8          20.3540     2.0690    15.5750 cc         1 1YD       0.442700
     38 N7          20.6760     3.3180    15.9690 nd         1 1YD      -0.583100
     39 C7          20.3760     3.3100    17.3360 ca         1 1YD      -0.076600
     40 C9          19.8920     2.0970    17.7590 ca         1 1YD       0.149500
     41 N3          19.5470     1.8690    19.0430 nb         1 1YD      -0.195000
     42 C10         19.7060     2.9140    19.8890 ca         1 1YD       0.163900
     43 N1          20.1730     4.1470    19.5760 nb         1 1YD      -0.321000
     44 C6          20.5060     4.3420    18.2910 ca         1 1YD       0.437900
     45 N6          20.9780     5.5800    17.9810 nv         1 1YD      -1.082900
     46 H1          14.2190     4.8640    26.6320 hn         1 1YD       0.305500
     47 H2          12.9290     1.6900    26.4820 hn         1 1YD       0.491500
     48 H3          12.8650     3.2070    27.2690 hn         1 1YD       0.491500
     49 H4          19.0820     2.0790    23.3560 h5         1 1YD       0.101100
     50 H5          17.0210    -0.4080    24.6660 h2         1 1YD       0.075700
     51 H6          15.5240     0.5950    22.1840 h1         1 1YD       0.118700
     52 H7          14.5450     0.4980    24.3900 ho         1 1YD       0.516000
     53 H8          17.5160    -0.4520    20.9220 h1         1 1YD       0.077700
     54 H9          17.9780    -3.0580    21.0630 h1         1 1YD       0.044700
     55 H10         18.9010    -2.6550    22.5240 h1         1 1YD       0.044700
     56 H12         16.2610    -2.3090    23.0730 h1         1 1YD       0.059700
     57 H14         16.0590    -1.7790    17.3760 h1         1 1YD       0.042700
     58 H15         16.6490    -2.6500    18.8150 h1         1 1YD       0.042700
     59 H16         18.3410    -0.6030    18.9960 h1         1 1YD       0.077700
     60 H17         18.7840    -2.6840    16.7280 h1         1 1YD       0.054700
     61 H18         20.4920    -0.6180    18.3500 h1         1 1YD       0.135700
     62 H19         21.8480    -2.1510    17.5830 ho         1 1YD       0.509000
     63 H20         19.4910    -0.3640    15.4780 h2         1 1YD       0.095700
     64 H21         20.4410     1.6730    14.5690 h5         1 1YD       0.092800
     65 H22         19.4320     2.7440    20.9290 h5         1 1YD       0.025100
     66 H23         21.3140     6.1670    18.7400 hn         1 1YD       0.494000
     67 H24         21.4360     5.6890    17.0790 hn         1 1YD       0.494000
@<TRIPOS>BOND
     1     1     2 2   
     2     2     3 1   
     3     2     8 1   
     4     3     4 1   
     5     3    46 1   
     6     4     5 1   
     7     4     6 2   
     8     5    47 1   
     9     5    48 1   
    10     6     7 1   
    11     7     8 2   
    12     7    11 1   
    13     8     9 1   
    14     9    10 2   
    15    10    11 1   
    16    10    49 1   
    17    11    12 1   
    18    12    13 1   
    19    12    15 1   
    20    12    50 1   
    21    13    14 1   
    22    13    23 1   
    23    13    51 1   
    24    14    52 1   
    25    15    16 1   
    26    16    17 1   
    27    16    23 1   
    28    16    53 1   
    29    17    18 1   
    30    17    54 1   
    31    17    55 1   
    32    18    19 1   
    33    19    20 1   
    34    19    21 1   
    35    19    22 1   
    36    20    32 1   
    37    23    24 1   
    38    23    56 1   
    39    24    25 1   
    40    25    26 1   
    41    25    27 1   
    42    25    28 1   
    43    28    29 1   
    44    29    30 1   
    45    29    57 1   
    46    29    58 1   
    47    30    31 1   
    48    30    32 1   
    49    30    59 1   
    50    31    35 1   
    51    32    33 1   
    52    32    60 1   
    53    33    34 1   
    54    33    35 1   
    55    33    61 1   
    56    34    62 1   
    57    35    36 1   
    58    35    63 1   
    59    36    37 1   
    60    36    40 1   
    61    37    38 2   
    62    37    64 1   
    63    38    39 1   
    64    39    40 ar  
    65    39    44 ar  
    66    40    41 ar  
    67    41    42 ar  
    68    42    43 ar  
    69    42    65 1   
    70    43    44 ar  
    71    44    45 1   
    72    45    66 1   
    73    45    67 1   
@<TRIPOS>SUBSTRUCTURE
     1 1YD         1 TEMP              0 ****  ****    0 ROOT
