@<TRIPOS>MOLECULE
1YD
   67    73     1     0     0
SMALL
abcg2


@<TRIPOS>ATOM
      1 OAC         14.7960     6.1140    23.5170 o          1 1YD      -0.556000
      2 CBC         14.8650     4.9300    23.8360 c          1 1YD       0.525500
      3 NAT         13.8970     4.3810    24.7060 ns         1 1YD      -0.459400
      4 CBA         13.8340     3.0840    25.1390 cc         1 1YD       0.714800
      5 NAA         12.7970     2.7370    25.9250 nv         1 1YD      -1.053200
      6 NAS         14.7240     2.1760    24.7830 nd         1 1YD      -0.698100
      7 CBG         15.6780     2.6570    23.9560 cd         1 1YD       0.122400
      8 CBE         15.8190     3.9440    23.4520 cc         1 1YD       0.100500
      9 NAR         16.9160     4.0080    22.6100 nc         1 1YD      -0.631000
     10 CAL         17.4200     2.7970    22.6140 cd         1 1YD       0.449400
     11 NBQ         16.7090     1.9370    23.4230 na         1 1YD      -0.184500
     12 CBO         16.9190     0.5080    23.6820 c5         1 1YD       0.266300
     13 CBI         15.6900    -0.3180    23.2410 c5         1 1YD       0.083300
     14 OAG         14.8810    -0.7330    24.3220 oh         1 1YD      -0.712000
     15 OAX         18.0380     0.0460    22.9690 os         1 1YD      -0.432000
     16 CBK         17.6030    -0.8670    21.9420 c5         1 1YD       0.106300
     17 CAN         18.6880    -1.8710    21.6590 c3         1 1YD       0.226600
     18 OAV         19.7450    -1.2440    20.9250 os         1 1YD      -0.605400
     19 PBR         20.7480    -2.1600    20.0230 p5         1 1YD       1.406800
     20 O3          19.7790    -2.7330    18.8340 os         1 1YD      -0.607400
     21 OAH         21.7610    -1.2110    19.4770 o          1 1YD      -0.816000
     22 OAD         21.1480    -3.3790    20.7820 o          1 1YD      -0.816000
     23 CBM         16.3310    -1.4950    22.5180 c5         1 1YD       0.233300
     24 OAZ         15.5310    -2.1880    21.5730 os         1 1YD      -0.596400
     25 PBS         14.6420    -1.5870    20.3330 p5         1 1YD       1.415800
     26 OAI         13.8700    -0.3840    20.7570 o          1 1YD      -0.818000
     27 OAE         13.9660    -2.7860    19.7610 o          1 1YD      -0.818000
     28 O5          15.7610    -1.0220    19.2950 os         1 1YD      -0.618400
     29 C5          16.6390    -1.9020    18.5850 c3         1 1YD       0.240600
     30 C4          17.9310    -1.1710    18.3450 c5         1 1YD       0.093300
     31 O4          17.7540    -0.1550    17.3390 os         1 1YD      -0.431000
     32 C3          19.0990    -2.0070    17.8160 c5         1 1YD       0.193300
     33 C2          19.9320    -0.9970    16.9890 c5         1 1YD       0.080300
     34 O2          20.1210    -1.4100    15.6410 oh         1 1YD      -0.732000
     35 C1          19.0410     0.2580    16.9640 c5         1 1YD       0.316300
     36 N9          19.5130     1.2800    17.9180 na         1 1YD      -0.312300
     37 C8          18.7870     1.8580    18.9360 cc         1 1YD       0.442700
     38 N7          19.4760     2.7290    19.6310 nd         1 1YD      -0.583100
     39 C7          20.7250     2.7400    19.0380 ca         1 1YD      -0.076600
     40 C9          20.7640     1.8490    17.9650 ca         1 1YD       0.149500
     41 N3          21.8140     1.6290    17.1630 nb         1 1YD      -0.195000
     42 C10         22.8680     2.3630    17.5120 ca         1 1YD       0.163900
     43 N1          22.9740     3.2400    18.5160 nb         1 1YD      -0.321000
     44 C6          21.9060     3.4560    19.3090 ca         1 1YD       0.437900
     45 N6          22.0110     4.3270    20.3260 nv         1 1YD      -1.082900
     46 H1          13.1820     5.0300    25.0100 hn         1 1YD       0.305500
     47 H2          12.8380     1.8330    26.3690 hn         1 1YD       0.491500
     48 H3          12.2360     3.4430    26.3730 hn         1 1YD       0.491500
     49 H4          18.2800     2.4690    22.0520 h5         1 1YD       0.101100
     50 H5          17.0990     0.3900    24.7530 h2         1 1YD       0.075700
     51 H6          15.1060     0.2560    22.5210 h1         1 1YD       0.118700
     52 H7          14.5320     0.0860    24.7180 ho         1 1YD       0.516000
     53 H8          17.3600    -0.3000    21.0420 h1         1 1YD       0.077700
     54 H9          18.2600    -2.6960    21.0860 h1         1 1YD       0.044700
     55 H10         19.0750    -2.2700    22.5990 h1         1 1YD       0.044700
     56 H12         16.6120    -2.2450    23.2630 h1         1 1YD       0.059700
     57 H14         16.1810    -2.2000    17.6390 h1         1 1YD       0.042700
     58 H15         16.8460    -2.8000    19.1700 h1         1 1YD       0.042700
     59 H16         18.2430    -0.7000    19.2740 h1         1 1YD       0.077700
     60 H17         18.7260    -2.7650    17.1250 h1         1 1YD       0.054700
     61 H18         20.8820    -0.8010    17.4790 h1         1 1YD       0.135700
     62 H19         20.7400    -2.1510    15.6360 ho         1 1YD       0.509000
     63 H20         18.9960     0.7000    15.9700 h2         1 1YD       0.095700
     64 H21         17.7580     1.5920    19.1120 h5         1 1YD       0.092800
     65 H22         23.7590     2.2370    16.9050 h5         1 1YD       0.025100
     66 H23         22.8500     4.8730    20.4300 hn         1 1YD       0.494000
     67 H24         21.2060     4.5640    20.8790 hn         1 1YD       0.494000
@<TRIPOS>BOND
     1     1     2 2   
     2     2     3 1   
     3     2     8 1   
     4     3     4 1   
     5     3    46 1   
     6     4     5 1   
     7     4     6 2   
     8     5    47 1   
     9     5    48 1   
    10     6     7 1   
    11     7     8 2   
    12     7    11 1   
    13     8     9 1   
    14     9    10 2   
    15    10    11 1   
    16    10    49 1   
    17    11    12 1   
    18    12    13 1   
    19    12    15 1   
    20    12    50 1   
    21    13    14 1   
    22    13    23 1   
    23    13    51 1   
    24    14    52 1   
    25    15    16 1   
    26    16    17 1   
    27    16    23 1   
    28    16    53 1   
    29    17    18 1   
    30    17    54 1   
    31    17    55 1   
    32    18    19 1   
    33    19    20 1   
    34    19    21 1   
    35    19    22 1   
    36    20    32 1   
    37    23    24 1   
    38    23    56 1   
    39    24    25 1   
    40    25    26 1   
    41    25    27 1   
    42    25    28 1   
    43    28    29 1   
    44    29    30 1   
    45    29    57 1   
    46    29    58 1   
    47    30    31 1   
    48    30    32 1   
    49    30    59 1   
    50    31    35 1   
    51    32    33 1   
    52    32    60 1   
    53    33    34 1   
    54    33    35 1   
    55    33    61 1   
    56    34    62 1   
    57    35    36 1   
    58    35    63 1   
    59    36    37 1   
    60    36    40 1   
    61    37    38 2   
    62    37    64 1   
    63    38    39 1   
    64    39    40 ar  
    65    39    44 ar  
    66    40    41 ar  
    67    41    42 ar  
    68    42    43 ar  
    69    42    65 1   
    70    43    44 ar  
    71    44    45 1   
    72    45    66 1   
    73    45    67 1   
@<TRIPOS>SUBSTRUCTURE
     1 1YD         1 TEMP              0 ****  ****    0 ROOT
