@<TRIPOS>MOLECULE
1YE
   34    36     1     0     0
SMALL
abcg2


@<TRIPOS>ATOM
      1 OAD          1.1240    -3.4430    -0.4270 o          1 1YE      -0.577100
      2 CAQ          0.7630    -2.2890    -0.2410 c          1 1YE       0.614300
      3 CAS          1.7020    -1.1690    -0.1620 ca         1 1YE      -0.247600
      4 CAJ          3.0740    -1.3690    -0.3290 ca         1 1YE      -0.034000
      5 CAH          3.9390    -0.3010    -0.2670 ca         1 1YE      -0.168000
      6 CAN          3.4620     0.9960    -0.0380 ca         1 1YE      -0.038300
      7 CAA          4.4340     2.1400     0.0230 c3         1 1YE      -0.046800
      8 CAO          2.0960     1.2280     0.1310 ca         1 1YE      -0.093300
      9 CAB          1.5910     2.6160     0.3950 c3         1 1YE      -0.049800
     10 CAT          1.2380     0.1270     0.0710 ca         1 1YE       0.190100
     11 OAL         -0.0760     0.3750     0.2560 os         1 1YE      -0.180200
     12 CAU         -1.0010    -0.6000     0.1620 ca         1 1YE       0.173100
     13 CAR         -0.6480    -1.9240    -0.0850 ca         1 1YE      -0.245600
     14 CAI         -1.6570    -2.8930    -0.1600 ca         1 1YE      -0.060000
     15 CAF         -2.9720    -2.5290     0.0170 ca         1 1YE      -0.153000
     16 CAG         -3.2920    -1.1970     0.2920 ca         1 1YE      -0.083000
     17 CAP         -2.3310    -0.2070     0.3800 ca         1 1YE      -0.010300
     18 CAK         -2.6720     1.1920     0.7760 c3         1 1YE      -0.187100
     19 CAM         -2.4550     2.2880    -0.2900 c          1 1YE       0.728000
     20 OAE         -2.3650     3.4530     0.1480 o          1 1YE      -0.725000
     21 OAC         -2.4350     1.9360    -1.4740 o          1 1YE      -0.725000
     22 H1           3.4470    -2.3690    -0.5040 ha         1 1YE       0.124000
     23 H2           5.0040    -0.4590    -0.3880 ha         1 1YE       0.103000
     24 H3           4.2480     2.8520    -0.7840 hc         1 1YE       0.039033
     25 H4           4.3510     2.6950     0.9590 hc         1 1YE       0.039033
     26 H5           5.4590     1.7900    -0.0700 hc         1 1YE       0.039033
     27 H6           0.5120     2.7040     0.2840 hc         1 1YE       0.057033
     28 H7           1.8470     2.9390     1.4050 hc         1 1YE       0.057033
     29 H8           2.0460     3.3280    -0.2960 hc         1 1YE       0.057033
     30 H9          -1.3840    -3.9200    -0.3450 ha         1 1YE       0.117000
     31 H10         -3.7580    -3.2710    -0.0440 ha         1 1YE       0.100000
     32 H11         -4.3270    -0.9210     0.4470 ha         1 1YE       0.111000
     33 H12         -3.7320     1.2250     1.0490 hc         1 1YE       0.037200
     34 H13         -2.1320     1.4750     1.6820 hc         1 1YE       0.037200
@<TRIPOS>BOND
     1     1     2 2   
     2     2     3 1   
     3     2    13 1   
     4     3     4 ar  
     5     3    10 ar  
     6     4     5 ar  
     7     4    22 1   
     8     5     6 ar  
     9     5    23 1   
    10     6     7 1   
    11     6     8 ar  
    12     7    24 1   
    13     7    25 1   
    14     7    26 1   
    15     8     9 1   
    16     8    10 ar  
    17     9    27 1   
    18     9    28 1   
    19     9    29 1   
    20    10    11 1   
    21    11    12 1   
    22    12    13 ar  
    23    12    17 ar  
    24    13    14 ar  
    25    14    15 ar  
    26    14    30 1   
    27    15    16 ar  
    28    15    31 1   
    29    16    17 ar  
    30    16    32 1   
    31    17    18 1   
    32    18    19 1   
    33    18    33 1   
    34    18    34 1   
    35    19    20 1   
    36    19    21 1   
@<TRIPOS>SUBSTRUCTURE
     1 1YE         1 TEMP              0 ****  ****    0 ROOT
