@<TRIPOS>MOLECULE
1YE
   34    36     1     0     0
SMALL
No Charge or Current Charge


@<TRIPOS>ATOM
      1 OAD          1.1410    -3.3690    -0.5560 o          1 1YE      -0.577100
      2 CAQ          0.7850    -2.2230    -0.3000 c          1 1YE       0.614300
      3 CAS          1.7700    -1.1060    -0.1800 ca         1 1YE      -0.247600
      4 CAJ          3.1480    -1.3340    -0.3570 ca         1 1YE      -0.034000
      5 CAH          4.0560    -0.2730    -0.2360 ca         1 1YE      -0.168000
      6 CAN          3.6090     1.0280     0.0590 ca         1 1YE      -0.038300
      7 CAA          4.6350     2.1510     0.1870 c3         1 1YE      -0.046800
      8 CAO          2.2230     1.2680     0.2320 ca         1 1YE      -0.093300
      9 CAB          1.7260     2.6840     0.5530 c3         1 1YE      -0.049800
     10 CAT          1.3110     0.1900     0.1140 ca         1 1YE       0.190100
     11 OAL         -0.0340     0.4240     0.2950 os         1 1YE      -0.180200
     12 CAU         -1.0060    -0.5470     0.2010 ca         1 1YE       0.173100
     13 CAR         -0.6540    -1.8790    -0.0910 ca         1 1YE      -0.245600
     14 CAI         -1.6600    -2.8640    -0.1820 ca         1 1YE      -0.060000
     15 CAF         -3.0040    -2.5150     0.0180 ca         1 1YE      -0.153000
     16 CAG         -3.3540    -1.1880     0.3090 ca         1 1YE      -0.083000
     17 CAP         -2.3620    -0.1920     0.4050 ca         1 1YE      -0.010300
     18 CAK         -2.7820     1.2490     0.7210 c3         1 1YE      -0.187100
     19 CAM         -3.0580     2.0010    -0.5890 c          1 1YE       0.728000
     20 OAE         -2.1240     2.5600    -1.1430 o          1 1YE      -0.725000
     21 OAC         -4.1740     1.9060    -1.0790 o          1 1YE      -0.725000
     22 H1           3.5210    -2.3310    -0.5850 ha         1 1YE       0.124000
     23 H2           5.1170    -0.4670    -0.3730 ha         1 1YE       0.103000
     24 H3           4.5010     2.8990    -0.6030 hc         1 1YE       0.039033
     25 H4           4.5490     2.6590     1.1540 hc         1 1YE       0.039033
     26 H5           5.6620     1.7750     0.1090 hc         1 1YE       0.039033
     27 H6           0.6350     2.7760     0.5180 hc         1 1YE       0.057033
     28 H7           2.0440     2.9910     1.5560 hc         1 1YE       0.057033
     29 H8           2.1220     3.4140    -0.1620 hc         1 1YE       0.057033
     30 H9          -1.4050    -3.8980    -0.4070 ha         1 1YE       0.117000
     31 H10         -3.7780    -3.2770    -0.0550 ha         1 1YE       0.100000
     32 H11         -4.4010    -0.9320     0.4570 ha         1 1YE       0.111000
     33 H12         -3.7010     1.1910     1.3160 hc         1 1YE       0.037200
     34 H13         -1.9620     1.7290     1.2680 hc         1 1YE       0.037200
@<TRIPOS>BOND
     1     1     2 2   
     2     2     3 1   
     3     2    13 1   
     4     3     4 ar  
     5     3    10 ar  
     6     4     5 ar  
     7     4    22 1   
     8     5     6 ar  
     9     5    23 1   
    10     6     7 1   
    11     6     8 ar  
    12     7    24 1   
    13     7    25 1   
    14     7    26 1   
    15     8     9 1   
    16     8    10 ar  
    17     9    27 1   
    18     9    28 1   
    19     9    29 1   
    20    10    11 1   
    21    11    12 1   
    22    12    13 ar  
    23    12    17 ar  
    24    13    14 ar  
    25    14    15 ar  
    26    14    30 1   
    27    15    16 ar  
    28    15    31 1   
    29    16    17 ar  
    30    16    32 1   
    31    17    18 1   
    32    18    19 1   
    33    18    33 1   
    34    18    34 1   
    35    19    20 1   
    36    19    21 1   
@<TRIPOS>SUBSTRUCTURE
     1 1YE         1 TEMP              0 ****  ****    0 ROOT
