@<TRIPOS>MOLECULE
1YF
   62    64     1     0     0
SMALL
No Charge or Current Charge


@<TRIPOS>ATOM
      1 O1F          0.4020    -1.6060     1.7980 o          1 1YF      -0.574100
      2 C1F          1.0240    -2.3830     1.0850 c          1 1YF       0.603900
      3 N3Q          2.3080    -2.1450     0.6490 ns         1 1YF      -0.496900
      4 C3Q          3.1550    -0.9900     1.0410 c6         1 1YF       0.102700
      5 C2Q          4.0220    -0.4850    -0.1570 c6         1 1YF       0.141300
      6 O2Q          3.2080    -0.2630    -1.3280 oh         1 1YF      -0.681000
      7 C4Q          4.1090    -1.3470     2.2280 c6         1 1YF       0.134300
      8 O4Q          3.3670    -1.7980     3.3770 oh         1 1YF      -0.700000
      9 C5Q          5.0040    -0.1120     2.5850 c6         1 1YF       0.139300
     10 C6Q          6.0890    -0.4470     3.6440 c3         1 1YF      -0.081100
     11 O5Q          5.7170     0.3640     1.4150 os         1 1YF      -0.493000
     12 C1Q          4.8770     0.7660     0.3100 c6         1 1YF       0.421300
     13 O3B          4.1190     1.9090     0.7420 os         1 1YF      -0.574400
     14 PB           3.3860     2.8620    -0.3250 p5         1 1YF       1.466800
     15 O2B          3.0890     4.1750     0.3190 o          1 1YF      -0.851000
     16 O1B          4.2260     2.9910    -1.5500 o          1 1YF      -0.851000
     17 O3A          2.1230     1.9450    -0.5270 os         1 1YF      -0.689800
     18 PA           0.8890     2.6750    -1.1860 p5         1 1YF       1.462800
     19 O1A          1.2250     3.4930    -2.3870 o          1 1YF      -0.849000
     20 O2A          0.0250     3.4010    -0.2090 o          1 1YF      -0.849000
     21 O5           0.1880     1.3060    -1.6620 os         1 1YF      -0.568400
     22 C5          -0.5110     0.4930    -0.7030 c3         1 1YF       0.225600
     23 C4          -2.0300     0.8160    -0.7420 c5         1 1YF       0.168300
     24 O4          -2.6400     0.0990    -1.8400 os         1 1YF      -0.403000
     25 C3          -2.8290     0.2990     0.4930 c5         1 1YF       0.127300
     26 O3          -2.7010     1.1360     1.6490 oh         1 1YF      -0.703000
     27 C2          -4.2730     0.3350    -0.0740 c5         1 1YF      -0.153400
     28 C1          -4.0510     0.0010    -1.5810 c5         1 1YF       0.347700
     29 N1          -4.6070    -1.3600    -1.8340 n          1 1YF      -0.311000
     30 C9          -3.8370    -2.5240    -1.5890 c          1 1YF       0.623000
     31 O2          -2.7180    -2.5350    -1.1030 o          1 1YF      -0.531000
     32 C6          -5.9000    -1.4520    -2.3580 cc         1 1YF       0.023600
     33 C7          -6.4480    -2.6800    -2.6660 cd         1 1YF      -0.298400
     34 C5M         -7.8300    -2.8550    -3.2560 c3         1 1YF      -0.007900
     35 C8          -5.6690    -3.9190    -2.4270 c          1 1YF       0.597200
     36 N3          -4.4340    -3.7030    -1.9070 ns         1 1YF      -0.466500
     37 O6          -6.0690    -5.0490    -2.6630 o          1 1YF      -0.563000
     38 H2           0.6190    -3.3410     0.7080 h5         1 1YF      -0.040800
     39 H3           2.5010    -0.1650     1.3680 h1         1 1YF       0.161700
     40 H4           4.7360    -1.2870    -0.4020 h1         1 1YF      -0.015300
     41 H5           2.6310     0.5200    -1.1120 ho         1 1YF       0.488000
     42 H6           4.7710    -2.1600     1.8920 h1         1 1YF      -0.003300
     43 H7           3.9750    -2.3640     3.9040 ho         1 1YF       0.480000
     44 H8           4.3700     0.6990     2.9800 h1         1 1YF       0.127700
     45 H9           6.7220    -1.2820     3.3160 hc         1 1YF       0.029367
     46 H10          6.7400     0.4170     3.8270 hc         1 1YF       0.029367
     47 H11          5.6380    -0.7260     4.6040 hc         1 1YF       0.029367
     48 H12          5.5350     1.0630    -0.5220 h2         1 1YF       0.069700
     49 H15         -0.3600    -0.5740    -0.9210 h1         1 1YF       0.030700
     50 H16         -0.1340     0.6780     0.3130 h1         1 1YF       0.030700
     51 H17         -2.1830     1.8950    -0.8830 h1         1 1YF       0.070700
     52 H18         -2.5280    -0.7330     0.7300 h1         1 1YF       0.071700
     53 H19         -3.2500     0.7330     2.3600 ho         1 1YF       0.487000
     54 H20         -4.9420    -0.3670     0.4370 hc         1 1YF       0.050700
     55 H21         -4.7200     1.3330     0.0230 hc         1 1YF       0.050700
     56 H22         -4.5990     0.7040    -2.2220 h2         1 1YF       0.043700
     57 H23         -6.3910    -0.4920    -2.4960 h4         1 1YF       0.197000
     58 H24         -7.7830    -3.3600    -4.2290 hc         1 1YF       0.035033
     59 H25         -8.4720    -3.4510    -2.5950 hc         1 1YF       0.035033
     60 H26         -8.3250    -1.8870    -3.4100 hc         1 1YF       0.035033
     61 H27         -3.8840    -4.5290    -1.7300 hn         1 1YF       0.339500
     62 H1           2.7130    -2.8470     0.0420 hn         1 1YF       0.278500
@<TRIPOS>BOND
     1     1     2 2   
     2     2     3 1   
     3     2    38 1   
     4     3     4 1   
     5     3    62 1   
     6     4     5 1   
     7     4     7 1   
     8     4    39 1   
     9     5     6 1   
    10     5    12 1   
    11     5    40 1   
    12     6    41 1   
    13     7     8 1   
    14     7     9 1   
    15     7    42 1   
    16     8    43 1   
    17     9    10 1   
    18     9    11 1   
    19     9    44 1   
    20    10    45 1   
    21    10    46 1   
    22    10    47 1   
    23    11    12 1   
    24    12    13 1   
    25    12    48 1   
    26    13    14 1   
    27    14    15 1   
    28    14    16 1   
    29    14    17 1   
    30    17    18 1   
    31    18    19 1   
    32    18    20 1   
    33    18    21 1   
    34    21    22 1   
    35    22    23 1   
    36    22    49 1   
    37    22    50 1   
    38    23    24 1   
    39    23    25 1   
    40    23    51 1   
    41    24    28 1   
    42    25    26 1   
    43    25    27 1   
    44    25    52 1   
    45    26    53 1   
    46    27    28 1   
    47    27    54 1   
    48    27    55 1   
    49    28    29 1   
    50    28    56 1   
    51    29    30 1   
    52    29    32 1   
    53    30    31 2   
    54    30    36 1   
    55    32    33 2   
    56    32    57 1   
    57    33    34 1   
    58    33    35 1   
    59    34    58 1   
    60    34    59 1   
    61    34    60 1   
    62    35    36 1   
    63    35    37 2   
    64    36    61 1   
@<TRIPOS>SUBSTRUCTURE
     1 1YF         1 TEMP              0 ****  ****    0 ROOT
