@<TRIPOS>MOLECULE
1YF
   62    64     1     0     0
SMALL
abcg2


@<TRIPOS>ATOM
      1 O1F          1.4450    -3.8460     1.4870 o          1 1YF      -0.574100
      2 C1F          2.3920    -4.3510     0.9080 c          1 1YF       0.603900
      3 N3Q          3.4600    -3.7060     0.4300 ns         1 1YF      -0.496900
      4 C3Q          3.6790    -2.2840     0.5210 c6         1 1YF       0.102700
      5 C2Q          3.7850    -1.6650    -0.8700 c6         1 1YF       0.141300
      6 O2Q          2.5830    -1.8930    -1.5500 oh         1 1YF      -0.681000
      7 C4Q          4.9440    -1.9820     1.3230 c6         1 1YF       0.134300
      8 O4Q          4.7500    -2.4660     2.6290 oh         1 1YF      -0.700000
      9 C5Q          5.2290    -0.4770     1.3240 c6         1 1YF       0.139300
     10 C6Q          6.5500    -0.1310     1.9790 c3         1 1YF      -0.081100
     11 O5Q          5.2910     0.0020    -0.0150 os         1 1YF      -0.493000
     12 C1Q          4.1210    -0.1750    -0.7580 c6         1 1YF       0.421300
     13 O3B          3.0270     0.4750    -0.1950 os         1 1YF      -0.574400
     14 PB           3.0490     2.1230    -0.0440 p5         1 1YF       1.466800
     15 O2B          3.4810     2.5020     1.3350 o          1 1YF      -0.851000
     16 O1B          3.7070     2.7100    -1.2520 o          1 1YF      -0.851000
     17 O3A          1.4360     2.3580    -0.2130 os         1 1YF      -0.689800
     18 PA           0.3520     2.4680     1.0170 p5         1 1YF       1.462800
     19 O1A          0.3330     3.8610     1.5640 o          1 1YF      -0.849000
     20 O2A          0.4540     1.2910     1.9330 o          1 1YF      -0.849000
     21 O5          -0.9360     2.2700     0.0050 os         1 1YF      -0.568400
     22 C5          -2.2220     2.3300     0.5830 c3         1 1YF       0.225600
     23 C4          -3.2630     2.2930    -0.5070 c5         1 1YF       0.168300
     24 O4          -3.2180     1.0410    -1.1710 os         1 1YF      -0.403000
     25 C3          -4.6870     2.4550     0.0250 c5         1 1YF       0.127300
     26 O3          -5.0210     3.8210     0.0160 oh         1 1YF      -0.703000
     27 C2          -5.5070     1.5910    -0.9320 c5         1 1YF      -0.153400
     28 C1          -4.4950     0.6280    -1.5620 c5         1 1YF       0.347700
     29 N1          -4.6640    -0.7870    -1.2340 n          1 1YF      -0.311000
     30 C9          -4.6760    -1.1900     0.0800 c          1 1YF       0.623000
     31 O2          -4.5820    -0.4270     1.0180 o          1 1YF      -0.531000
     32 C6          -4.7420    -1.7030    -2.2510 cc         1 1YF       0.023600
     33 C7          -4.8700    -3.0290    -2.0710 cd         1 1YF      -0.298400
     34 C5M         -4.9550    -4.0040    -3.1990 c3         1 1YF      -0.007900
     35 C8          -4.9180    -3.5250    -0.7100 c          1 1YF       0.597200
     36 N3          -4.8120    -2.5430     0.2580 ns         1 1YF      -0.466500
     37 O6          -5.0360    -4.6960    -0.3960 o          1 1YF      -0.563000
     38 H2           2.4550    -5.4330     0.7170 h5         1 1YF      -0.040800
     39 H3           2.8190    -1.8500     1.0380 h1         1 1YF       0.161700
     40 H4           4.6310    -2.1370    -1.3930 h1         1 1YF      -0.015300
     41 H5           2.7140    -1.6930    -2.4820 ho         1 1YF       0.488000
     42 H6           5.7900    -2.4910     0.8350 h1         1 1YF      -0.003300
     43 H7           5.6090    -2.6280     3.0290 ho         1 1YF       0.480000
     44 H8           4.4230     0.0310     1.8670 h1         1 1YF       0.127700
     45 H9           7.3850    -0.6410     1.4950 hc         1 1YF       0.029367
     46 H10          6.7280     0.9440     1.9320 hc         1 1YF       0.029367
     47 H11          6.5440    -0.4080     3.0330 hc         1 1YF       0.029367
     48 H12          4.3480     0.2300    -1.7520 h2         1 1YF       0.069700
     49 H15         -2.3910     1.4920     1.2700 h1         1 1YF       0.030700
     50 H16         -2.3600     3.2570     1.1530 h1         1 1YF       0.030700
     51 H17         -3.0700     3.1000    -1.2280 h1         1 1YF       0.070700
     52 H18         -4.7540     2.0540     1.0400 h1         1 1YF       0.071700
     53 H19         -5.8100     3.9410     0.5510 ho         1 1YF       0.487000
     54 H20         -6.3410     1.0800    -0.4540 hc         1 1YF       0.050700
     55 H21         -5.9200     2.2230    -1.7210 hc         1 1YF       0.050700
     56 H22         -4.5850     0.6620    -2.6510 h2         1 1YF       0.043700
     57 H23         -4.6950    -1.2810    -3.2460 h4         1 1YF       0.197000
     58 H24         -4.1340    -4.7220    -3.1650 hc         1 1YF       0.035033
     59 H25         -5.8850    -4.5730    -3.1640 hc         1 1YF       0.035033
     60 H26         -4.9120    -3.4930    -4.1590 hc         1 1YF       0.035033
     61 H27         -4.8320    -2.8500     1.2230 hn         1 1YF       0.339500
     62 H1           4.1630    -4.2620    -0.0320 hn         1 1YF       0.278500
@<TRIPOS>BOND
     1     1     2 2   
     2     2     3 1   
     3     2    38 1   
     4     3     4 1   
     5     3    62 1   
     6     4     5 1   
     7     4     7 1   
     8     4    39 1   
     9     5     6 1   
    10     5    12 1   
    11     5    40 1   
    12     6    41 1   
    13     7     8 1   
    14     7     9 1   
    15     7    42 1   
    16     8    43 1   
    17     9    10 1   
    18     9    11 1   
    19     9    44 1   
    20    10    45 1   
    21    10    46 1   
    22    10    47 1   
    23    11    12 1   
    24    12    13 1   
    25    12    48 1   
    26    13    14 1   
    27    14    15 1   
    28    14    16 1   
    29    14    17 1   
    30    17    18 1   
    31    18    19 1   
    32    18    20 1   
    33    18    21 1   
    34    21    22 1   
    35    22    23 1   
    36    22    49 1   
    37    22    50 1   
    38    23    24 1   
    39    23    25 1   
    40    23    51 1   
    41    24    28 1   
    42    25    26 1   
    43    25    27 1   
    44    25    52 1   
    45    26    53 1   
    46    27    28 1   
    47    27    54 1   
    48    27    55 1   
    49    28    29 1   
    50    28    56 1   
    51    29    30 1   
    52    29    32 1   
    53    30    31 2   
    54    30    36 1   
    55    32    33 2   
    56    32    57 1   
    57    33    34 1   
    58    33    35 1   
    59    34    58 1   
    60    34    59 1   
    61    34    60 1   
    62    35    36 1   
    63    35    37 2   
    64    36    61 1   
@<TRIPOS>SUBSTRUCTURE
     1 1YF         1 TEMP              0 ****  ****    0 ROOT
