@<TRIPOS>MOLECULE
1YH
   81    85     1     0     0
SMALL
bcc


@<TRIPOS>ATOM
      1 N2           6.6790    -1.2670     1.7240 n7         1 1YH      -0.802200
      2 C1           7.3860    -2.2990     2.4550 c3         1 1YH       0.150100
      3 C3           5.2440    -1.2840     1.9090 c3         1 1YH       0.098500
      4 C5           4.7560    -0.9620     3.3290 c3         1 1YH      -0.131100
      5 C6           4.6150    -0.2720     0.9610 c          1 1YH       0.678100
      6 O7           5.1420     0.8080     0.7370 o          1 1YH      -0.608100
      7 N8           3.4290    -0.6470     0.4520 ns         1 1YH      -0.555900
      8 C9           2.5590     0.2250    -0.2940 c3         1 1YH       0.040700
      9 C17          1.2610     0.4180     0.4890 c          1 1YH       0.660100
     10 O18          0.8990    -0.4400     1.2820 o          1 1YH      -0.619100
     11 C11          2.2600    -0.3140    -1.7080 c6         1 1YH      -0.067700
     12 C12          3.5330    -0.3510    -2.5530 c6         1 1YH      -0.070900
     13 C13          3.2460    -0.8300    -3.9730 c6         1 1YH      -0.073400
     14 C14          2.5540    -2.1880    -3.9740 c6         1 1YH      -0.075400
     15 C15          1.2880    -2.1550    -3.1270 c6         1 1YH      -0.073400
     16 C16          1.5750    -1.6810    -1.7050 c6         1 1YH      -0.070900
     17 N19          0.5290     1.5370     0.2640 n          1 1YH      -0.445800
     18 C20          0.8020     2.4940    -0.8040 c6         1 1YH       0.110000
     19 C21          0.2920     3.8640    -0.4210 c5         1 1YH       0.147500
     20 C23          0.3200     4.9120    -1.5280 c5         1 1YH      -0.072400
     21 C24         -0.8920     5.8170    -1.2090 c5         1 1YH      -0.077400
     22 C25         -1.5600     5.1580     0.0050 c5         1 1YH       0.160800
     23 N26         -1.1130     3.7810    -0.0780 n3         1 1YH      -0.710600
     24 C27         -1.2880     2.9840     1.1020 c6         1 1YH       0.169800
     25 C28         -0.8010     1.5580     0.8450 c6         1 1YH       0.020700
     26 C30         -1.7590     0.7500    -0.0380 c          1 1YH       0.667100
     27 O31         -1.4590     0.3770    -1.1590 o          1 1YH      -0.594100
     28 N32         -2.9360     0.4690     0.5510 ns         1 1YH      -0.566900
     29 C33         -3.9490    -0.3810    -0.0290 c6         1 1YH       0.164000
     30 C35         -5.3280     0.2570     0.0730 c6         1 1YH      -0.126400
     31 C36         -6.3690    -0.7520    -0.3560 c6         1 1YH       0.140400
     32 O37         -6.3760    -1.8960     0.4880 os         1 1YH      -0.322900
     33 C38         -5.1780    -2.4170     0.8310 ca         1 1YH       0.146100
     34 C39         -5.1990    -3.6700     1.4440 ca         1 1YH      -0.166000
     35 C40         -4.0160    -4.2730     1.8330 ca         1 1YH      -0.092000
     36 C41         -2.8010    -3.6340     1.6130 ca         1 1YH      -0.164000
     37 C42         -2.7890    -2.3850     1.0140 ca         1 1YH      -0.077000
     38 C43         -3.9660    -1.7540     0.6160 ca         1 1YH      -0.192300
     39 H1           7.0420    -0.3560     1.9750 hn         1 1YH       0.375800
     40 H3           8.4520    -2.2230     2.2430 h1         1 1YH       0.029700
     41 H4           7.2640    -2.2690     3.5450 h1         1 1YH       0.029700
     42 H5           7.0550    -3.2830     2.1160 h1         1 1YH       0.029700
     43 H6           4.8930    -2.2880     1.6450 h1         1 1YH       0.064700
     44 H7           3.6680    -1.0060     3.3960 hc         1 1YH       0.046700
     45 H8           5.1570    -1.6730     4.0500 hc         1 1YH       0.046700
     46 H9           5.0750     0.0390     3.6270 hc         1 1YH       0.046700
     47 H14          3.0510    -1.5360     0.7410 hn         1 1YH       0.327500
     48 H15          3.0900     1.1730    -0.3940 h1         1 1YH       0.095700
     49 H16          1.5690     0.3930    -2.1810 hc         1 1YH       0.060700
     50 H17          3.9930     0.6410    -2.5780 hc         1 1YH       0.046700
     51 H18          4.2600    -1.0220    -2.0830 hc         1 1YH       0.046700
     52 H10          2.6080    -0.0990    -4.4800 hc         1 1YH       0.040700
     53 H11          4.1760    -0.8760    -4.5450 hc         1 1YH       0.040700
     54 H19          2.3200    -2.4940    -4.9970 hc         1 1YH       0.037700
     55 H20          3.2380    -2.9430    -3.5710 hc         1 1YH       0.037700
     56 H12          0.5580    -1.4800    -3.5870 hc         1 1YH       0.040700
     57 H13          0.8220    -3.1430    -3.0990 hc         1 1YH       0.040700
     58 H21          2.2160    -2.4170    -1.2080 hc         1 1YH       0.046700
     59 H22          0.6410    -1.6410    -1.1420 hc         1 1YH       0.046700
     60 H23          1.8720     2.5550    -0.9880 h1         1 1YH       0.065200
     61 H24          0.3170     2.1800    -1.7320 h1         1 1YH       0.065200
     62 H25          0.8760     4.2290     0.4460 h1         1 1YH       0.036700
     63 H26          1.2630     5.4570    -1.5400 hc         1 1YH       0.053200
     64 H27          0.2050     4.4390    -2.5060 hc         1 1YH       0.053200
     65 H28         -0.5950     6.8410    -0.9860 hc         1 1YH       0.050200
     66 H29         -1.5760     5.8560    -2.0560 hc         1 1YH       0.050200
     67 H30         -1.2160     5.6370     0.9370 h1         1 1YH       0.037700
     68 H31         -2.6490     5.2210    -0.0130 h1         1 1YH       0.037700
     69 H33         -0.7280     3.3920     1.9600 h1         1 1YH       0.043200
     70 H34         -2.3390     2.9600     1.3950 h1         1 1YH       0.043200
     71 H35         -0.7520     1.0600     1.8140 h1         1 1YH       0.092700
     72 H36         -3.0690     0.7360     1.5160 hn         1 1YH       0.310500
     73 H37         -3.6980    -0.4920    -1.0860 h1         1 1YH       0.092700
     74 H38         -5.5260     0.5850     1.0980 hc         1 1YH       0.060700
     75 H39         -5.3850     1.1350    -0.5720 hc         1 1YH       0.060700
     76 H40         -7.3720    -0.3320    -0.3040 h1         1 1YH       0.057700
     77 H41         -6.1890    -1.0650    -1.3920 h1         1 1YH       0.057700
     78 H42         -6.1490    -4.1610     1.6100 ha         1 1YH       0.144000
     79 H43         -4.0450    -5.2460     2.3070 ha         1 1YH       0.132000
     80 H44         -1.8720    -4.1010     1.9100 ha         1 1YH       0.136000
     81 H45         -1.8410    -1.8830     0.8620 ha         1 1YH       0.143000
@<TRIPOS>BOND
     1     1     2 1   
     2     1     3 1   
     3     1    39 1   
     4     2    40 1   
     5     2    41 1   
     6     2    42 1   
     7     3     4 1   
     8     3     5 1   
     9     3    43 1   
    10     4    44 1   
    11     4    45 1   
    12     4    46 1   
    13     5     6 2   
    14     5     7 1   
    15     7     8 1   
    16     7    47 1   
    17     8     9 1   
    18     8    11 1   
    19     8    48 1   
    20     9    10 2   
    21     9    17 1   
    22    11    12 1   
    23    11    16 1   
    24    11    49 1   
    25    12    13 1   
    26    12    50 1   
    27    12    51 1   
    28    13    14 1   
    29    13    52 1   
    30    13    53 1   
    31    14    15 1   
    32    14    54 1   
    33    14    55 1   
    34    15    16 1   
    35    15    56 1   
    36    15    57 1   
    37    16    58 1   
    38    16    59 1   
    39    17    18 1   
    40    17    25 1   
    41    18    19 1   
    42    18    60 1   
    43    18    61 1   
    44    19    20 1   
    45    19    23 1   
    46    19    62 1   
    47    20    21 1   
    48    20    63 1   
    49    20    64 1   
    50    21    22 1   
    51    21    65 1   
    52    21    66 1   
    53    22    23 1   
    54    22    67 1   
    55    22    68 1   
    56    23    24 1   
    57    24    25 1   
    58    24    69 1   
    59    24    70 1   
    60    25    26 1   
    61    25    71 1   
    62    26    27 2   
    63    26    28 1   
    64    28    29 1   
    65    28    72 1   
    66    29    30 1   
    67    29    38 1   
    68    29    73 1   
    69    30    31 1   
    70    30    74 1   
    71    30    75 1   
    72    31    32 1   
    73    31    76 1   
    74    31    77 1   
    75    32    33 1   
    76    33    34 ar  
    77    33    38 ar  
    78    34    35 ar  
    79    34    78 1   
    80    35    36 ar  
    81    35    79 1   
    82    36    37 ar  
    83    36    80 1   
    84    37    38 ar  
    85    37    81 1   
@<TRIPOS>SUBSTRUCTURE
     1 1YH         1 TEMP              0 ****  ****    0 ROOT
