@<TRIPOS>MOLECULE
1YH
   81    85     1     0     0
SMALL
No Charge or Current Charge


@<TRIPOS>ATOM
      1 N2           7.4960    -1.3330     0.6010 n7         1 1YH      -0.857400
      2 C1           8.3990    -2.3880     1.1070 c3         1 1YH       0.150100
      3 C3           6.3860    -0.8860     1.5070 c3         1 1YH       0.098500
      4 C5           6.9620    -0.1830     2.7600 c3         1 1YH      -0.131100
      5 C6           5.3420     0.0420     0.7870 c          1 1YH       0.611100
      6 O7           5.6340     1.1360     0.3150 o          1 1YH      -0.608100
      7 N8           4.0570    -0.4600     0.7210 ns         1 1YH      -0.488900
      8 C9           2.8970     0.2180     0.0910 c3         1 1YH       0.040700
      9 C17          1.6350     0.0610     1.0070 c          1 1YH       0.593100
     10 O18          1.6090    -0.8040     1.8790 o          1 1YH      -0.619100
     11 C11          2.6700    -0.2790    -1.3830 c6         1 1YH      -0.067700
     12 C12          3.8470     0.0920    -2.3310 c6         1 1YH      -0.070900
     13 C13          3.5570    -0.3450    -3.7880 c6         1 1YH      -0.073400
     14 C14          3.2530    -1.8610    -3.8670 c6         1 1YH      -0.075400
     15 C15          2.0880    -2.2470    -2.9240 c6         1 1YH      -0.073400
     16 C16          2.3730    -1.8060    -1.4660 c6         1 1YH      -0.070900
     17 N19          0.5310     0.9430     0.8590 n          1 1YH      -0.378800
     18 C20          0.4100     1.9450    -0.2560 c6         1 1YH       0.110000
     19 C21         -0.4410     3.1960     0.1220 c5         1 1YH       0.147500
     20 C23         -0.9730     4.0410    -1.0600 c5         1 1YH      -0.072400
     21 C24         -2.1850     4.7960    -0.4220 c5         1 1YH      -0.077400
     22 C25         -2.4130     4.0770     0.9410 c5         1 1YH       0.160800
     23 N26         -1.7170     2.7920     0.7340 n3         1 1YH      -0.710600
     24 C27         -1.5400     1.9450     1.9270 c6         1 1YH       0.169800
     25 C28         -0.7820     0.6440     1.5410 c6         1 1YH       0.020700
     26 C30         -1.6530    -0.3430     0.7070 c          1 1YH       0.600100
     27 O31         -1.2590    -1.4650     0.4110 o          1 1YH      -0.594100
     28 N32         -2.8950     0.1030     0.3090 ns         1 1YH      -0.499900
     29 C33         -3.8890    -0.6470    -0.4600 c6         1 1YH       0.164000
     30 C35         -4.5320     0.2960    -1.4960 c6         1 1YH      -0.126400
     31 C36         -5.7730    -0.3720    -2.1050 c6         1 1YH       0.163600
     32 O37         -6.7420    -0.6480    -1.0750 os         1 1YH      -0.346100
     33 C38         -6.3230    -1.2240     0.1060 ca         1 1YH       0.146100
     34 C39         -7.2970    -1.7650     0.9600 ca         1 1YH      -0.148000
     35 C40         -6.9210    -2.3770     2.1670 ca         1 1YH      -0.074000
     36 C41         -5.5630    -2.4470     2.5170 ca         1 1YH      -0.146000
     37 C42         -4.5840    -1.8970     1.6730 ca         1 1YH      -0.059000
     38 C43         -4.9530    -1.2630     0.4650 ca         1 1YH      -0.192300
     39 H1           8.0560    -0.5100     0.3340 hn         1 1YH       0.431000
     40 H3           9.1030    -2.6970     0.3230 h1         1 1YH       0.029700
     41 H4           8.9870    -2.0350     1.9640 h1         1 1YH       0.029700
     42 H5           7.8300    -3.2740     1.4200 h1         1 1YH       0.029700
     43 H6           5.8270    -1.7670     1.8530 h1         1 1YH       0.064700
     44 H7           6.1480     0.1790     3.3990 hc         1 1YH       0.046700
     45 H8           7.5700    -0.8700     3.3600 hc         1 1YH       0.046700
     46 H9           7.5810     0.6770     2.4800 hc         1 1YH       0.046700
     47 H14          3.8940    -1.3560     1.1670 hn         1 1YH       0.327500
     48 H15          3.1170     1.2920     0.0590 h1         1 1YH       0.095700
     49 H16          1.7830     0.2430    -1.7610 hc         1 1YH       0.060700
     50 H17          4.0260     1.1760    -2.3020 hc         1 1YH       0.046700
     51 H18          4.7740    -0.3880    -1.9920 hc         1 1YH       0.046700
     52 H10          2.7060     0.2250    -4.1850 hc         1 1YH       0.040700
     53 H11          4.4180    -0.1040    -4.4270 hc         1 1YH       0.040700
     54 H19          3.0050    -2.1390    -4.9000 hc         1 1YH       0.037700
     55 H20          4.1520    -2.4330    -3.5970 hc         1 1YH       0.037700
     56 H12          1.1570    -1.7810    -3.2760 hc         1 1YH       0.040700
     57 H13          1.9240    -3.3330    -2.9590 hc         1 1YH       0.040700
     58 H21          3.2240    -2.3800    -1.0740 hc         1 1YH       0.046700
     59 H22          1.5090    -2.0610    -0.8380 hc         1 1YH       0.046700
     60 H23          1.3950     2.2970    -0.5860 h1         1 1YH       0.065200
     61 H24         -0.0640     1.4460    -1.1130 h1         1 1YH       0.065200
     62 H25          0.1460     3.8150     0.8170 h1         1 1YH       0.036700
     63 H26         -0.2140     4.7220    -1.4590 hc         1 1YH       0.053200
     64 H27         -1.3070     3.4020    -1.8860 hc         1 1YH       0.053200
     65 H28         -1.9770     5.8620    -0.2750 hc         1 1YH       0.050200
     66 H29         -3.0710     4.7260    -1.0630 hc         1 1YH       0.050200
     67 H30         -1.9560     4.6460     1.7630 h1         1 1YH       0.037700
     68 H31         -3.4790     3.9430     1.1690 h1         1 1YH       0.037700
     69 H33         -0.9540     2.4830     2.6870 h1         1 1YH       0.043200
     70 H34         -2.5080     1.6980     2.3860 h1         1 1YH       0.043200
     71 H35         -0.5910     0.1120     2.4820 h1         1 1YH       0.092700
     72 H36         -3.0800     1.0830     0.5010 hn         1 1YH       0.310500
     73 H37         -3.3880    -1.4670    -0.9980 h1         1 1YH       0.092700
     74 H38         -4.8280     1.2420    -1.0220 hc         1 1YH       0.060700
     75 H39         -3.8070     0.5450    -2.2820 hc         1 1YH       0.060700
     76 H40         -6.2310     0.2800    -2.8620 h1         1 1YH       0.057700
     77 H41         -5.4900    -1.3170    -2.5900 h1         1 1YH       0.057700
     78 H42         -8.3460    -1.7180     0.6810 ha         1 1YH       0.126000
     79 H43         -7.6770    -2.8000     2.8240 ha         1 1YH       0.114000
     80 H44         -5.2680    -2.9280     3.4470 ha         1 1YH       0.118000
     81 H45         -3.5390    -1.9670     1.9650 ha         1 1YH       0.125000
@<TRIPOS>BOND
     1     1     2 1   
     2     1     3 1   
     3     1    39 1   
     4     2    40 1   
     5     2    41 1   
     6     2    42 1   
     7     3     4 1   
     8     3     5 1   
     9     3    43 1   
    10     4    44 1   
    11     4    45 1   
    12     4    46 1   
    13     5     6 2   
    14     5     7 1   
    15     7     8 1   
    16     7    47 1   
    17     8     9 1   
    18     8    11 1   
    19     8    48 1   
    20     9    10 2   
    21     9    17 1   
    22    11    12 1   
    23    11    16 1   
    24    11    49 1   
    25    12    13 1   
    26    12    50 1   
    27    12    51 1   
    28    13    14 1   
    29    13    52 1   
    30    13    53 1   
    31    14    15 1   
    32    14    54 1   
    33    14    55 1   
    34    15    16 1   
    35    15    56 1   
    36    15    57 1   
    37    16    58 1   
    38    16    59 1   
    39    17    18 1   
    40    17    25 1   
    41    18    19 1   
    42    18    60 1   
    43    18    61 1   
    44    19    20 1   
    45    19    23 1   
    46    19    62 1   
    47    20    21 1   
    48    20    63 1   
    49    20    64 1   
    50    21    22 1   
    51    21    65 1   
    52    21    66 1   
    53    22    23 1   
    54    22    67 1   
    55    22    68 1   
    56    23    24 1   
    57    24    25 1   
    58    24    69 1   
    59    24    70 1   
    60    25    26 1   
    61    25    71 1   
    62    26    27 2   
    63    26    28 1   
    64    28    29 1   
    65    28    72 1   
    66    29    30 1   
    67    29    38 1   
    68    29    73 1   
    69    30    31 1   
    70    30    74 1   
    71    30    75 1   
    72    31    32 1   
    73    31    76 1   
    74    31    77 1   
    75    32    33 1   
    76    33    34 ar  
    77    33    38 ar  
    78    34    35 ar  
    79    34    78 1   
    80    35    36 ar  
    81    35    79 1   
    82    36    37 ar  
    83    36    80 1   
    84    37    38 ar  
    85    37    81 1   
@<TRIPOS>SUBSTRUCTURE
     1 1YH         1 TEMP              0 ****  ****    0 ROOT
