@<TRIPOS>MOLECULE
1YJ
   53    55     1     0     0
SMALL
abcg2


@<TRIPOS>ATOM
      1 N3           5.2230    -2.3570    -0.3420 ns         1 1YJ      -0.443400
      2 C2           5.8720    -1.7880    -1.3840 cc         1 1YJ       0.742800
      3 N1           6.1610    -0.5160    -1.4220 nd         1 1YJ      -0.767300
      4 C8A          5.8100     0.2280    -0.3460 cd         1 1YJ       0.439600
      5 C4A          5.1480    -0.2790     0.7650 cc         1 1YJ      -0.244200
      6 C4           4.7890    -1.6480     0.7840 c          1 1YJ       0.606200
      7 N8           6.1030     1.5380    -0.4200 nu         1 1YJ      -0.823200
      8 C7           5.7740     2.4590     0.6410 c6         1 1YJ       0.199800
      9 C6           4.5510     1.9450     1.4080 c6         1 1YJ       0.152500
     10 N5           4.7280     0.5660     1.8220 nu         1 1YJ      -0.715200
     11 C9           3.2770     2.0850     0.5730 c3         1 1YJ       0.231800
     12 N10          2.1960     1.3990     1.2310 nu         1 1YJ      -0.959200
     13 C12          0.9600     1.2770     0.6720 ca         1 1YJ       0.304000
     14 C3           0.5490     2.0550    -0.4230 ca         1 1YJ      -0.206500
     15 C10         -0.7220     1.9130    -0.9470 ca         1 1YJ      -0.038000
     16 C1          -1.6430     1.0150    -0.4120 ca         1 1YJ      -0.153600
     17 C13         -1.2290     0.2350     0.6720 ca         1 1YJ      -0.038000
     18 C5           0.0370     0.3570     1.2030 ca         1 1YJ      -0.206500
     19 C11         -2.9900     0.9180    -1.0360 c          1 1YJ       0.600700
     20 N           -3.9470     0.3050    -0.3180 ns         1 1YJ      -0.424900
     21 CA          -5.3250     0.2800    -0.7530 c3         1 1YJ      -0.049300
     22 C           -5.9910     1.6790    -0.7020 c          1 1YJ       0.718000
     23 OX2         -7.0400     1.7920    -1.3690 o          1 1YJ      -0.745000
     24 OX1         -5.4580     2.5460     0.0130 o          1 1YJ      -0.745000
     25 CB          -6.1150    -0.7120     0.1020 c3         1 1YJ      -0.055400
     26 CG          -5.6310    -2.1470    -0.0220 c3         1 1YJ      -0.200400
     27 CD          -6.4190    -3.1890     0.7920 c          1 1YJ       0.712000
     28 OE1         -7.4420    -2.8080     1.3960 o          1 1YJ      -0.762000
     29 OE2         -5.9650    -4.3530     0.7730 o          1 1YJ      -0.762000
     30 O11         -3.2000     1.3550    -2.1640 o          1 1YJ      -0.644100
     31 O4           4.1750    -2.2440     1.6650 o          1 1YJ      -0.543000
     32 N2           6.2580    -2.5920    -2.3910 nv         1 1YJ      -1.046200
     33 H3           6.6070     2.5670     1.3430 h1         1 1YJ       0.041700
     34 H4           5.5840     3.4430     0.2110 h1         1 1YJ       0.041700
     35 H5           4.4400     2.5480     2.3110 h1         1 1YJ       0.071700
     36 H6           5.3320     0.5070     2.6320 hn         1 1YJ       0.426000
     37 H8           3.0540     3.1510     0.4730 h1         1 1YJ       0.031200
     38 H9           1.2230     2.7720    -0.8720 ha         1 1YJ       0.096500
     39 H10         -1.0050     2.5190    -1.7980 ha         1 1YJ       0.126500
     40 H11         -1.8850    -0.5080     1.1080 ha         1 1YJ       0.126500
     41 H12          0.3300    -0.2690     2.0370 ha         1 1YJ       0.096500
     42 H13         -3.7900     0.1790     0.6690 hn         1 1YJ       0.296500
     43 H14         -5.3490    -0.0680    -1.7900 h1         1 1YJ       0.054700
     44 H16         -6.0830    -0.3900     1.1490 hc         1 1YJ       0.049200
     45 H17         -7.1610    -0.6500    -0.2000 hc         1 1YJ       0.049200
     46 H18         -5.6620    -2.4490    -1.0770 hc         1 1YJ       0.009700
     47 H19         -4.5760    -2.2230     0.2590 hc         1 1YJ       0.009700
     48 H21          5.8440    -3.5020    -2.5040 hn         1 1YJ       0.493500
     49 H22          6.5770    -2.1470    -3.2340 hn         1 1YJ       0.493500
     50 H23          5.0100    -3.3450    -0.3640 hn         1 1YJ       0.324500
     51 H1           6.5320     1.8770    -1.2640 hn         1 1YJ       0.501000
     52 H2           3.4360     1.7030    -0.4450 h1         1 1YJ       0.031200
     53 H7           2.5150     0.6240     1.7990 hn         1 1YJ       0.493000
@<TRIPOS>BOND
     1     1     2 1   
     2     1     6 1   
     3     1    50 1   
     4     2     3 2   
     5     2    32 1   
     6     3     4 1   
     7     4     5 2   
     8     4     7 1   
     9     5     6 1   
    10     5    10 1   
    11     6    31 2   
    12     7     8 1   
    13     7    51 1   
    14     8     9 1   
    15     8    33 1   
    16     8    34 1   
    17     9    10 1   
    18     9    11 1   
    19     9    35 1   
    20    10    36 1   
    21    11    12 1   
    22    11    37 1   
    23    11    52 1   
    24    12    13 1   
    25    12    53 1   
    26    13    14 ar  
    27    13    18 ar  
    28    14    15 ar  
    29    14    38 1   
    30    15    16 ar  
    31    15    39 1   
    32    16    17 ar  
    33    16    19 1   
    34    17    18 ar  
    35    17    40 1   
    36    18    41 1   
    37    19    20 1   
    38    19    30 2   
    39    20    21 1   
    40    20    42 1   
    41    21    22 1   
    42    21    25 1   
    43    21    43 1   
    44    22    23 1   
    45    22    24 1   
    46    25    26 1   
    47    25    44 1   
    48    25    45 1   
    49    26    27 1   
    50    26    46 1   
    51    26    47 1   
    52    27    28 1   
    53    27    29 1   
    54    32    48 1   
    55    32    49 1   
@<TRIPOS>SUBSTRUCTURE
     1 1YJ         1 TEMP              0 ****  ****    0 ROOT
