@<TRIPOS>MOLECULE
1YJ
   53    55     1     0     0
SMALL
No Charge or Current Charge


@<TRIPOS>ATOM
      1 N3           6.4880    -2.4570     0.9260 ns         1 1YJ      -0.443400
      2 C2           6.9780    -2.3160    -0.3120 cc         1 1YJ       0.742800
      3 N1           6.8610    -1.2920    -1.1090 nd         1 1YJ      -0.767300
      4 C8A          6.1210    -0.2710    -0.5690 cd         1 1YJ       0.439600
      5 C4A          5.5650    -0.3080     0.7020 cc         1 1YJ      -0.244200
      6 C4           5.7640    -1.5080     1.5440 c          1 1YJ       0.606200
      7 N8           6.0150     0.8030    -1.3800 nu         1 1YJ      -0.823200
      8 C7           5.5830     2.1080    -0.8090 c6         1 1YJ       0.199800
      9 C6           4.5010     1.9500     0.3300 c6         1 1YJ       0.152500
     10 N5           4.8210     0.7770     1.2080 nu         1 1YJ      -0.715200
     11 C9           3.0650     1.8440    -0.2960 c3         1 1YJ       0.231800
     12 N10          1.9840     1.7510     0.7130 nu         1 1YJ      -0.959200
     13 C12          0.6220     1.6540     0.4460 ca         1 1YJ       0.304000
     14 C3           0.0600     2.1960    -0.7200 ca         1 1YJ      -0.206500
     15 C10         -1.3200     2.0860    -0.9610 ca         1 1YJ      -0.038000
     16 C1          -2.1660     1.4310    -0.0370 ca         1 1YJ      -0.153600
     17 C13         -1.5880     0.8890     1.1370 ca         1 1YJ      -0.038000
     18 C5          -0.2060     1.0050     1.3700 ca         1 1YJ      -0.206500
     19 C11         -3.6500     1.3300    -0.3310 c          1 1YJ       0.600700
     20 N           -4.4240     0.6930     0.6200 ns         1 1YJ      -0.424900
     21 CA          -5.8850     0.4460     0.5280 c3         1 1YJ      -0.049300
     22 C           -6.5610     0.7280     1.9050 c          1 1YJ       0.718000
     23 OX2         -7.5000     1.5110     1.9380 o          1 1YJ      -0.745000
     24 OX1         -6.0720     0.2290     2.9100 o          1 1YJ      -0.745000
     25 CB          -6.2080    -0.9880     0.0270 c3         1 1YJ      -0.055400
     26 CG          -5.7010    -1.3070    -1.4040 c3         1 1YJ      -0.200400
     27 CD          -6.1770    -2.7070    -1.8350 c          1 1YJ       0.712000
     28 OE1         -7.2630    -2.8050    -2.3850 o          1 1YJ      -0.762000
     29 OE2         -5.4720    -3.6670    -1.5620 o          1 1YJ      -0.762000
     30 O11         -4.1410     1.7970    -1.3520 o          1 1YJ      -0.644100
     31 O4           5.3350    -1.6550     2.6790 o          1 1YJ      -0.543000
     32 N2           7.6710    -3.3340    -0.7830 nv         1 1YJ      -1.046200
     33 H3           6.4600     2.6120    -0.3750 h1         1 1YJ       0.041700
     34 H4           5.1990     2.7710    -1.5980 h1         1 1YJ       0.041700
     35 H5           4.5140     2.8740     0.9270 h1         1 1YJ       0.071700
     36 H6           4.5030     0.7440     2.1810 hn         1 1YJ       0.426000
     37 H8           2.9060     2.7310    -0.9250 h1         1 1YJ       0.031200
     38 H9           0.6840     2.7100    -1.4450 ha         1 1YJ       0.096500
     39 H10         -1.7310     2.5150    -1.8730 ha         1 1YJ       0.126500
     40 H11         -2.1920     0.3750     1.8800 ha         1 1YJ       0.126500
     41 H12          0.2170     0.5830     2.2780 ha         1 1YJ       0.096500
     42 H13         -3.9490     0.3650     1.4500 hn         1 1YJ       0.296500
     43 H14         -6.3140     1.1620    -0.1850 h1         1 1YJ       0.054700
     44 H16         -5.7900    -1.7190     0.7300 hc         1 1YJ       0.049200
     45 H17         -7.2970    -1.1220     0.0510 hc         1 1YJ       0.049200
     46 H18         -6.1360    -0.5370    -2.0540 hc         1 1YJ       0.009700
     47 H19         -4.6060    -1.2760    -1.3540 hc         1 1YJ       0.009700
     48 H21          7.3850    -4.2550    -0.4750 hn         1 1YJ       0.493500
     49 H22          7.8710    -3.2550    -1.7720 hn         1 1YJ       0.493500
     50 H23          6.6830    -3.2940     1.4470 hn         1 1YJ       0.324500
     51 H1           6.6610     0.7770    -2.1660 hn         1 1YJ       0.501000
     52 H2           3.0330     0.9620    -0.9510 h1         1 1YJ       0.031200
     53 H7           2.2650     1.3180     1.5930 hn         1 1YJ       0.493000
@<TRIPOS>BOND
     1     1     2 1   
     2     1     6 1   
     3     1    50 1   
     4     2     3 2   
     5     2    32 1   
     6     3     4 1   
     7     4     5 2   
     8     4     7 1   
     9     5     6 1   
    10     5    10 1   
    11     6    31 2   
    12     7     8 1   
    13     7    51 1   
    14     8     9 1   
    15     8    33 1   
    16     8    34 1   
    17     9    10 1   
    18     9    11 1   
    19     9    35 1   
    20    10    36 1   
    21    11    12 1   
    22    11    37 1   
    23    11    52 1   
    24    12    13 1   
    25    12    53 1   
    26    13    14 ar  
    27    13    18 ar  
    28    14    15 ar  
    29    14    38 1   
    30    15    16 ar  
    31    15    39 1   
    32    16    17 ar  
    33    16    19 1   
    34    17    18 ar  
    35    17    40 1   
    36    18    41 1   
    37    19    20 1   
    38    19    30 2   
    39    20    21 1   
    40    20    42 1   
    41    21    22 1   
    42    21    25 1   
    43    21    43 1   
    44    22    23 1   
    45    22    24 1   
    46    25    26 1   
    47    25    44 1   
    48    25    45 1   
    49    26    27 1   
    50    26    46 1   
    51    26    47 1   
    52    27    28 1   
    53    27    29 1   
    54    32    48 1   
    55    32    49 1   
@<TRIPOS>SUBSTRUCTURE
     1 1YJ         1 TEMP              0 ****  ****    0 ROOT
