@<TRIPOS>MOLECULE
1YK
   72    76     1     0     0
SMALL
abcg2


@<TRIPOS>ATOM
      1 C26          2.1910     1.3850     2.1420 c3         1 1YK      -0.118100
      2 C14          2.1880     1.1700     0.6280 c6         1 1YK       0.202000
      3 C15          3.0280     2.2450    -0.0420 c6         1 1YK      -0.065400
      4 C16          4.5070     2.0070     0.2320 c6         1 1YK      -0.101400
      5 C17          4.9840     0.6630    -0.3120 c6         1 1YK       0.213000
      6 C18          4.1390    -0.5290     0.2620 c6         1 1YK      -0.142000
      7 C13          2.5900    -0.2530     0.1350 c6         1 1YK       0.192000
      8 C12          1.7090    -1.2510     0.9080 c6         1 1YK      -0.035200
      9 C11          0.2810    -0.8350     0.7480 cc         1 1YK      -0.365400
     10 C10         -0.0590     0.4370     0.3800 cd         1 1YK       0.264100
     11 C9          -1.4190     0.7960     0.1430 cd         1 1YK      -0.313000
     12 C8          -2.3700    -0.1410     0.3260 cc         1 1YK       0.228900
     13 O6          -2.0420    -1.3820     0.7120 os         1 1YK      -0.343200
     14 C7          -0.7510    -1.8020     0.9270 c          1 1YK       0.693300
     15 O7          -0.6140    -2.9600     1.2530 o          1 1YK      -0.509000
     16 C1          -3.8090     0.0470     0.1150 ca         1 1YK      -0.002800
     17 C6          -4.6130    -1.0470    -0.2000 ca         1 1YK      -0.193000
     18 C5          -5.9700    -0.8540    -0.4370 ca         1 1YK       0.150600
     19 C4          -6.5230     0.4270    -0.3570 ca         1 1YK       0.044100
     20 C3          -5.7110     1.5160    -0.0200 ca         1 1YK       0.150600
     21 C2          -4.3540     1.3250     0.2120 ca         1 1YK      -0.193000
     22 O3          -6.3350     2.7000     0.0580 os         1 1YK      -0.323100
     23 C27         -5.5670     3.8500     0.3570 c3         1 1YK       0.143900
     24 O4          -7.8390     0.6180    -0.6160 os         1 1YK      -0.329100
     25 C28         -8.6900     0.4800     0.5170 c3         1 1YK       0.148900
     26 O5          -6.8280    -1.8330    -0.7610 os         1 1YK      -0.323100
     27 C29         -6.3390    -3.1580    -0.8550 c3         1 1YK       0.143900
     28 O8           0.8270     1.4040     0.1980 os         1 1YK      -0.319100
     29 O9           2.1760    -0.2720    -1.2100 oh         1 1YK      -0.645000
     30 C19          4.5690    -1.7340    -0.5790 c          1 1YK       0.597300
     31 O1           3.7950    -2.5340    -1.0690 o          1 1YK      -0.530100
     32 C20          6.0220    -1.9380    -0.6740 ce         1 1YK      -0.290200
     33 C21          6.8910    -0.9610    -0.4140 c2         1 1YK      -0.144200
     34 C22          6.5270     0.4650    -0.1170 c6         1 1YK      -0.047800
     35 C24          7.3190     1.3070    -1.1410 c3         1 1YK      -0.088600
     36 C23          7.0610     0.8920     1.2620 c3         1 1YK      -0.088600
     37 C25          4.5010    -0.9500     1.7010 c3         1 1YK      -0.092100
     38 O2           4.7190     0.5980    -1.7020 oh         1 1YK      -0.650000
     39 H1           1.7700     2.3700     2.3500 hc         1 1YK       0.050700
     40 H2           1.6020     0.6490     2.6870 hc         1 1YK       0.050700
     41 H3           3.1940     1.3800     2.5550 hc         1 1YK       0.050700
     42 H4           2.8370     2.2630    -1.1150 hc         1 1YK       0.067200
     43 H5           2.7410     3.2230     0.3500 hc         1 1YK       0.067200
     44 H6           5.0860     2.8120    -0.2290 hc         1 1YK       0.050200
     45 H7           4.7090     2.0860     1.3010 hc         1 1YK       0.050200
     46 H8           1.8490    -2.2620     0.5230 hc         1 1YK       0.070200
     47 H9           1.9640    -1.2980     1.9690 hc         1 1YK       0.070200
     48 H10         -1.6680     1.7900    -0.1970 ha         1 1YK       0.216000
     49 H11         -4.1800    -2.0330    -0.2780 ha         1 1YK       0.134000
     50 H12         -3.7240     2.1570     0.4960 ha         1 1YK       0.134000
     51 H13         -6.2570     4.6900     0.3550 h1         1 1YK       0.044367
     52 H14         -5.0980     3.7830     1.3420 h1         1 1YK       0.044367
     53 H15         -4.7930     4.0290    -0.3930 h1         1 1YK       0.044367
     54 H16         -8.4690     1.2300     1.2800 h1         1 1YK       0.035367
     55 H17         -9.7100     0.6260     0.1680 h1         1 1YK       0.035367
     56 H18         -8.6110    -0.5130     0.9650 h1         1 1YK       0.035367
     57 H19         -5.9130    -3.5040     0.0900 h1         1 1YK       0.044367
     58 H20         -7.1940    -3.7820    -1.1050 h1         1 1YK       0.044367
     59 H21         -5.5880    -3.2610    -1.6420 h1         1 1YK       0.044367
     60 H22          2.3480    -1.1580    -1.5500 ho         1 1YK       0.474000
     61 H23          6.3610    -2.9240    -0.9730 ha         1 1YK       0.203000
     62 H24          7.9550    -1.1720    -0.4810 ha         1 1YK       0.177000
     63 H25          7.0820     2.3690    -1.0590 hc         1 1YK       0.041200
     64 H26          8.3870     1.2050    -0.9420 hc         1 1YK       0.041200
     65 H27          7.1610     0.9920    -2.1710 hc         1 1YK       0.041200
     66 H28          6.5280     0.4590     2.1030 hc         1 1YK       0.041200
     67 H29          8.1100     0.6070     1.3570 hc         1 1YK       0.041200
     68 H30          7.0140     1.9760     1.3630 hc         1 1YK       0.041200
     69 H31          4.3040    -0.1750     2.4360 hc         1 1YK       0.048033
     70 H32          3.9250    -1.8260     1.9940 hc         1 1YK       0.048033
     71 H33          5.5420    -1.2360     1.7970 hc         1 1YK       0.048033
     72 H34          5.0210     1.4100    -2.1220 ho         1 1YK       0.448000
@<TRIPOS>BOND
     1     1     2 1   
     2     1    39 1   
     3     1    40 1   
     4     1    41 1   
     5     2     3 1   
     6     2     7 1   
     7     2    28 1   
     8     3     4 1   
     9     3    42 1   
    10     3    43 1   
    11     4     5 1   
    12     4    44 1   
    13     4    45 1   
    14     5     6 1   
    15     5    34 1   
    16     5    38 1   
    17     6     7 1   
    18     6    30 1   
    19     6    37 1   
    20     7     8 1   
    21     7    29 1   
    22     8     9 1   
    23     8    46 1   
    24     8    47 1   
    25     9    10 2   
    26     9    14 1   
    27    10    11 1   
    28    10    28 1   
    29    11    12 2   
    30    11    48 1   
    31    12    13 1   
    32    12    16 1   
    33    13    14 1   
    34    14    15 2   
    35    16    17 ar  
    36    16    21 ar  
    37    17    18 ar  
    38    17    49 1   
    39    18    19 ar  
    40    18    26 1   
    41    19    20 ar  
    42    19    24 1   
    43    20    21 ar  
    44    20    22 1   
    45    21    50 1   
    46    22    23 1   
    47    23    51 1   
    48    23    52 1   
    49    23    53 1   
    50    24    25 1   
    51    25    54 1   
    52    25    55 1   
    53    25    56 1   
    54    26    27 1   
    55    27    57 1   
    56    27    58 1   
    57    27    59 1   
    58    29    60 1   
    59    30    31 2   
    60    30    32 1   
    61    32    33 2   
    62    32    61 1   
    63    33    34 1   
    64    33    62 1   
    65    34    35 1   
    66    34    36 1   
    67    35    63 1   
    68    35    64 1   
    69    35    65 1   
    70    36    66 1   
    71    36    67 1   
    72    36    68 1   
    73    37    69 1   
    74    37    70 1   
    75    37    71 1   
    76    38    72 1   
@<TRIPOS>SUBSTRUCTURE
     1 1YK         1 TEMP              0 ****  ****    0 ROOT
