@<TRIPOS>MOLECULE
1YK
   72    76     1     0     0
SMALL
No Charge or Current Charge


@<TRIPOS>ATOM
      1 C26          2.1460     1.6180     2.0400 c3         1 1YK      -0.118100
      2 C14          2.1700     1.1790     0.5320 c6         1 1YK       0.202000
      3 C15          3.0440     2.1900    -0.2700 c6         1 1YK      -0.065400
      4 C16          4.5820     2.0040    -0.0680 c6         1 1YK      -0.101400
      5 C17          5.0630     0.5480    -0.3830 c6         1 1YK       0.213000
      6 C18          4.2780    -0.5000     0.5490 c6         1 1YK      -0.142000
      7 C13          2.6610    -0.3330     0.2360 c6         1 1YK       0.192000
      8 C12          1.6730    -1.2810     1.0290 c6         1 1YK      -0.035200
      9 C11          0.2190    -0.8420     0.8470 cc         1 1YK      -0.365400
     10 C10         -0.1500     0.4010     0.3880 cd         1 1YK       0.264100
     11 C9          -1.5220     0.7280     0.2140 cd         1 1YK      -0.313000
     12 C8          -2.4940    -0.2060     0.5050 cc         1 1YK       0.228900
     13 O6          -2.1110    -1.4490     0.9300 os         1 1YK      -0.343200
     14 C7          -0.8200    -1.8390     1.1370 c          1 1YK       0.693300
     15 O7          -0.5680    -2.9650     1.5440 o          1 1YK      -0.509000
     16 C1          -3.9250     0.0810     0.3300 ca         1 1YK      -0.002800
     17 C6          -4.8010    -0.9440    -0.0700 ca         1 1YK      -0.193000
     18 C5          -6.1840    -0.7080    -0.2450 ca         1 1YK       0.150600
     19 C4          -6.7060     0.6010    -0.0060 ca         1 1YK       0.044100
     20 C3          -5.8230     1.6280     0.4060 ca         1 1YK       0.150600
     21 C2          -4.4460     1.3640     0.5730 ca         1 1YK      -0.193000
     22 O3          -6.3490     2.8890     0.6410 os         1 1YK      -0.323100
     23 C27         -5.5440     4.0060     1.0580 c3         1 1YK       0.143900
     24 O4          -8.0490     0.9590    -0.1440 os         1 1YK      -0.329100
     25 C28         -9.1050     0.0720    -0.5520 c3         1 1YK       0.148900
     26 O5          -7.0190    -1.7400    -0.6450 os         1 1YK      -0.323100
     27 C29         -6.5570    -3.0790    -0.8970 c3         1 1YK       0.143900
     28 O8           0.7810     1.3690     0.1210 os         1 1YK      -0.319100
     29 O9           2.3540    -0.6390    -1.1650 oh         1 1YK      -0.645000
     30 C19          4.7990    -1.9810     0.1630 c          1 1YK       0.597300
     31 O1           4.2890    -3.0340     0.5750 o          1 1YK      -0.530100
     32 C20          6.1240    -2.1060    -0.5580 ce         1 1YK      -0.290200
     33 C21          6.9710    -1.0720    -0.7800 c2         1 1YK      -0.144200
     34 C22          6.6510     0.3700    -0.3810 c6         1 1YK      -0.047800
     35 C24          7.3640     1.3050    -1.4280 c3         1 1YK      -0.088600
     36 C23          7.3810     0.6680     0.9710 c3         1 1YK      -0.088600
     37 C25          4.6250    -0.3730     2.0860 c3         1 1YK      -0.092100
     38 O2           4.6850     0.3130    -1.7510 oh         1 1YK      -0.650000
     39 H1           1.5620     2.5380     2.1600 hc         1 1YK       0.050700
     40 H2           1.6870     0.8720     2.6960 hc         1 1YK       0.050700
     41 H3           3.1360     1.8480     2.4380 hc         1 1YK       0.050700
     42 H4           2.8020     2.1080    -1.3380 hc         1 1YK       0.067200
     43 H5           2.7660     3.2160     0.0060 hc         1 1YK       0.067200
     44 H6           5.0850     2.7210    -0.7280 hc         1 1YK       0.050200
     45 H7           4.8660     2.3060     0.9470 hc         1 1YK       0.050200
     46 H8           1.8060    -2.3100     0.6710 hc         1 1YK       0.070200
     47 H9           1.9060    -1.3230     2.0980 hc         1 1YK       0.070200
     48 H10         -1.7870     1.7110    -0.1550 ha         1 1YK       0.216000
     49 H11         -4.3800    -1.9280    -0.2480 ha         1 1YK       0.134000
     50 H12         -3.7730     2.1470     0.9070 ha         1 1YK       0.134000
     51 H13         -6.1680     4.8990     1.1790 h1         1 1YK       0.044367
     52 H14         -5.0580     3.7990     2.0200 h1         1 1YK       0.044367
     53 H15         -4.7710     4.2300     0.3120 h1         1 1YK       0.044367
     54 H16         -9.2130    -0.7610     0.1550 h1         1 1YK       0.035367
     55 H17        -10.0600     0.6120    -0.5810 h1         1 1YK       0.035367
     56 H18         -8.9170    -0.3280    -1.5570 h1         1 1YK       0.035367
     57 H19         -6.1060    -3.5130     0.0040 h1         1 1YK       0.044367
     58 H20         -7.3960    -3.7190    -1.1980 h1         1 1YK       0.044367
     59 H21         -5.8150    -3.0900    -1.7060 h1         1 1YK       0.044367
     60 H22          3.1430    -0.2780    -1.6510 ho         1 1YK       0.474000
     61 H23          6.4060    -3.1210    -0.8330 ha         1 1YK       0.203000
     62 H24          7.9350    -1.2490    -1.2650 ha         1 1YK       0.177000
     63 H25          7.2530     2.3650    -1.1750 hc         1 1YK       0.041200
     64 H26          8.4440     1.1100    -1.4670 hc         1 1YK       0.041200
     65 H27          6.9960     1.1670    -2.4510 hc         1 1YK       0.041200
     66 H28          7.2480    -0.1270     1.7090 hc         1 1YK       0.041200
     67 H29          8.4670     0.7400     0.8310 hc         1 1YK       0.041200
     68 H30          7.0560     1.6140     1.4170 hc         1 1YK       0.041200
     69 H31          4.9540     0.6270     2.3790 hc         1 1YK       0.048033
     70 H32          3.7930    -0.6360     2.7430 hc         1 1YK       0.048033
     71 H33          5.4280    -1.0600     2.3760 hc         1 1YK       0.048033
     72 H34          5.4900     0.4700    -2.2900 ho         1 1YK       0.448000
@<TRIPOS>BOND
     1     1     2 1   
     2     1    39 1   
     3     1    40 1   
     4     1    41 1   
     5     2     3 1   
     6     2     7 1   
     7     2    28 1   
     8     3     4 1   
     9     3    42 1   
    10     3    43 1   
    11     4     5 1   
    12     4    44 1   
    13     4    45 1   
    14     5     6 1   
    15     5    34 1   
    16     5    38 1   
    17     6     7 1   
    18     6    30 1   
    19     6    37 1   
    20     7     8 1   
    21     7    29 1   
    22     8     9 1   
    23     8    46 1   
    24     8    47 1   
    25     9    10 2   
    26     9    14 1   
    27    10    11 1   
    28    10    28 1   
    29    11    12 2   
    30    11    48 1   
    31    12    13 1   
    32    12    16 1   
    33    13    14 1   
    34    14    15 2   
    35    16    17 ar  
    36    16    21 ar  
    37    17    18 ar  
    38    17    49 1   
    39    18    19 ar  
    40    18    26 1   
    41    19    20 ar  
    42    19    24 1   
    43    20    21 ar  
    44    20    22 1   
    45    21    50 1   
    46    22    23 1   
    47    23    51 1   
    48    23    52 1   
    49    23    53 1   
    50    24    25 1   
    51    25    54 1   
    52    25    55 1   
    53    25    56 1   
    54    26    27 1   
    55    27    57 1   
    56    27    58 1   
    57    27    59 1   
    58    29    60 1   
    59    30    31 2   
    60    30    32 1   
    61    32    33 2   
    62    32    61 1   
    63    33    34 1   
    64    33    62 1   
    65    34    35 1   
    66    34    36 1   
    67    35    63 1   
    68    35    64 1   
    69    35    65 1   
    70    36    66 1   
    71    36    67 1   
    72    36    68 1   
    73    37    69 1   
    74    37    70 1   
    75    37    71 1   
    76    38    72 1   
@<TRIPOS>SUBSTRUCTURE
     1 1YK         1 TEMP              0 ****  ****    0 ROOT
