@<TRIPOS>MOLECULE
1YL
   35    38     1     0     0
SMALL
abcg2


@<TRIPOS>ATOM
      1 C18          4.7020     1.9680     0.1110 c3         1 1YL      -0.050800
      2 C4           3.9240     0.6860     0.0760 ca         1 1YL      -0.068300
      3 C3           4.5740    -0.5180     0.1200 ca         1 1YL      -0.099000
      4 C2           3.8560    -1.7260     0.0970 ca         1 1YL      -0.099000
      5 C1           2.4910    -1.7420     0.0240 ca         1 1YL      -0.097000
      6 C10          1.7570    -0.5290    -0.0300 ca         1 1YL       0.003000
      7 C5           2.4990     0.6940     0.0010 ca         1 1YL      -0.032000
      8 C6           1.8070     1.9200    -0.0450 ca         1 1YL      -0.077000
      9 C7           0.4440     1.9720    -0.1140 ca         1 1YL      -0.096000
     10 C8          -0.2960     0.7810    -0.1380 ca         1 1YL      -0.028800
     11 C9           0.3300    -0.4620    -0.1020 ca         1 1YL      -0.112600
     12 C11         -0.5380    -1.6710    -0.1590 c          1 1YL       0.474700
     13 O21         -0.1250    -2.8020    -0.2350 o          1 1YL      -0.465100
     14 C12         -2.0860    -1.5230    -0.1310 c          1 1YL       0.515300
     15 O20         -2.7490    -2.5410    -0.0730 o          1 1YL      -0.482100
     16 C13         -2.5970    -0.2020    -0.1920 cc         1 1YL      -0.341400
     17 C14         -1.7490     0.8470    -0.1990 cd         1 1YL       0.217900
     18 O19         -2.3450     2.0250    -0.2540 os         1 1YL      -0.322100
     19 C16         -3.7670     1.7950    -0.4410 c5         1 1YL       0.141600
     20 C15         -4.0110     0.3010    -0.1540 c5         1 1YL      -0.012500
     21 C17         -4.6930     0.0430     1.1860 c3         1 1YL      -0.087100
     22 H1           4.4460     2.5740     0.9820 hc         1 1YL       0.045700
     23 H2           5.7700     1.7640     0.1550 hc         1 1YL       0.045700
     24 H3           4.5190     2.5830    -0.7710 hc         1 1YL       0.045700
     25 H4           5.6550    -0.5440     0.1750 ha         1 1YL       0.116000
     26 H5           4.3960    -2.6630     0.1380 ha         1 1YL       0.119000
     27 H6           1.9830    -2.6900     0.0080 ha         1 1YL       0.148000
     28 H7           2.3630     2.8470    -0.0280 ha         1 1YL       0.121000
     29 H8          -0.0560     2.9290    -0.1500 ha         1 1YL       0.135000
     30 H11         -4.3010     2.4640     0.2330 h1         1 1YL       0.066700
     31 H12         -4.0050     2.0630    -1.4710 h1         1 1YL       0.066700
     32 H13         -4.6120    -0.1350    -0.9550 hc         1 1YL       0.077700
     33 H14         -4.1400     0.5040     2.0050 hc         1 1YL       0.044033
     34 H15         -5.7050     0.4510     1.1880 hc         1 1YL       0.044033
     35 H16         -4.7660    -1.0250     1.3860 hc         1 1YL       0.044033
@<TRIPOS>BOND
     1     1     2 1   
     2     1    22 1   
     3     1    23 1   
     4     1    24 1   
     5     2     3 ar  
     6     2     7 ar  
     7     3     4 ar  
     8     3    25 1   
     9     4     5 ar  
    10     4    26 1   
    11     5     6 ar  
    12     5    27 1   
    13     6     7 ar  
    14     6    11 ar  
    15     7     8 ar  
    16     8     9 ar  
    17     8    28 1   
    18     9    10 ar  
    19     9    29 1   
    20    10    11 ar  
    21    10    17 1   
    22    11    12 1   
    23    12    13 2   
    24    12    14 1   
    25    14    15 2   
    26    14    16 1   
    27    16    17 2   
    28    16    20 1   
    29    17    18 1   
    30    18    19 1   
    31    19    20 1   
    32    19    30 1   
    33    19    31 1   
    34    20    21 1   
    35    20    32 1   
    36    21    33 1   
    37    21    34 1   
    38    21    35 1   
@<TRIPOS>SUBSTRUCTURE
     1 1YL         1 TEMP              0 ****  ****    0 ROOT
