@<TRIPOS>MOLECULE
1YL
   35    38     1     0     0
SMALL
No Charge or Current Charge


@<TRIPOS>ATOM
      1 C18          4.7770     1.9700     0.0860 c3         1 1YL      -0.050800
      2 C4           3.9410     0.6900     0.0860 ca         1 1YL      -0.068300
      3 C3           4.6140    -0.5360     0.2090 ca         1 1YL      -0.099000
      4 C2           3.8970    -1.7340     0.2360 ca         1 1YL      -0.099000
      5 C1           2.5010    -1.7250     0.1190 ca         1 1YL      -0.097000
      6 C10          1.7790    -0.5120    -0.0400 ca         1 1YL       0.003000
      7 C5           2.5230     0.7060    -0.0260 ca         1 1YL      -0.032000
      8 C6           1.8410     1.9360    -0.1150 ca         1 1YL      -0.077000
      9 C7           0.4480     1.9760    -0.1850 ca         1 1YL      -0.096000
     10 C8          -0.3020     0.7900    -0.2090 ca         1 1YL      -0.028800
     11 C9           0.3490    -0.4740    -0.1850 ca         1 1YL      -0.112600
     12 C11         -0.5370    -1.7150    -0.3680 c          1 1YL       0.474700
     13 O21         -0.0930    -2.8020    -0.7310 o          1 1YL      -0.465100
     14 C12         -2.1120    -1.5530    -0.1940 c          1 1YL       0.515300
     15 O20         -2.8560    -2.5270    -0.1000 o          1 1YL      -0.482100
     16 C13         -2.6350    -0.1790    -0.1880 cc         1 1YL      -0.341400
     17 C14         -1.7720     0.8580    -0.2330 cd         1 1YL       0.217900
     18 O19         -2.3930     2.0760    -0.2390 os         1 1YL      -0.322100
     19 C16         -3.8280     1.8280    -0.3870 c5         1 1YL       0.141600
     20 C15         -4.0390     0.3050    -0.1050 c5         1 1YL      -0.012500
     21 C17         -4.7210     0.0170     1.2500 c3         1 1YL      -0.087100
     22 H1           4.5160     2.6130     0.9350 hc         1 1YL       0.045700
     23 H2           5.8510     1.7590     0.1600 hc         1 1YL       0.045700
     24 H3           4.6250     2.5420    -0.8370 hc         1 1YL       0.045700
     25 H4           5.6980    -0.5640     0.3000 ha         1 1YL       0.116000
     26 H5           4.4250    -2.6770     0.3560 ha         1 1YL       0.119000
     27 H6           2.0120    -2.6880     0.1890 ha         1 1YL       0.148000
     28 H7           2.3740     2.8820    -0.1030 ha         1 1YL       0.121000
     29 H8          -0.0470     2.9430    -0.2170 ha         1 1YL       0.135000
     30 H11         -4.3920     2.4790     0.2940 h1         1 1YL       0.066700
     31 H12         -4.1140     2.0760    -1.4180 h1         1 1YL       0.066700
     32 H13         -4.6640    -0.1480    -0.8850 hc         1 1YL       0.077700
     33 H14         -4.1460     0.4410     2.0820 hc         1 1YL       0.044033
     34 H15         -5.7290     0.4480     1.2830 hc         1 1YL       0.044033
     35 H16         -4.8160    -1.0620     1.4230 hc         1 1YL       0.044033
@<TRIPOS>BOND
     1     1     2 1   
     2     1    22 1   
     3     1    23 1   
     4     1    24 1   
     5     2     3 ar  
     6     2     7 ar  
     7     3     4 ar  
     8     3    25 1   
     9     4     5 ar  
    10     4    26 1   
    11     5     6 ar  
    12     5    27 1   
    13     6     7 ar  
    14     6    11 ar  
    15     7     8 ar  
    16     8     9 ar  
    17     8    28 1   
    18     9    10 ar  
    19     9    29 1   
    20    10    11 ar  
    21    10    17 1   
    22    11    12 1   
    23    12    13 2   
    24    12    14 1   
    25    14    15 2   
    26    14    16 1   
    27    16    17 2   
    28    16    20 1   
    29    17    18 1   
    30    18    19 1   
    31    19    20 1   
    32    19    30 1   
    33    19    31 1   
    34    20    21 1   
    35    20    32 1   
    36    21    33 1   
    37    21    34 1   
    38    21    35 1   
@<TRIPOS>SUBSTRUCTURE
     1 1YL         1 TEMP              0 ****  ****    0 ROOT
