@<TRIPOS>MOLECULE
1YM
   43    45     1     0     0
SMALL
No Charge or Current Charge


@<TRIPOS>ATOM
      1 C1           8.6650    -1.1170    -0.1570 c3         1 1YM      -0.110100
      2 C2           7.6660     0.0130    -0.4480 c3         1 1YM       0.118000
      3 O5           5.2790     1.5630    -0.7110 o          1 1YM      -0.582100
      4 N6           4.0420    -0.2070     0.0920 ns         1 1YM      -0.349900
      5 C7           2.7250     0.2700     0.1310 ca         1 1YM       0.481900
      6 C8           1.6460    -0.5910    -0.1080 ca         1 1YM      -0.184000
      7 C9           0.3190    -0.1130    -0.0200 ca         1 1YM      -0.063500
      8 C10          0.1470     1.2410     0.3940 cp         1 1YM      -0.072000
      9 C11          1.3140     2.0160     0.6290 ca         1 1YM       0.378900
     10 C13         -1.1970     1.8480     0.6370 cp         1 1YM      -0.166000
     11 C14         -1.5760     3.0550     0.0070 ca         1 1YM      -0.039000
     12 C15         -2.8480     3.6050     0.2740 ca         1 1YM      -0.183600
     13 C16         -3.6920     2.9270     1.1710 ca         1 1YM       0.353900
     14 C19         -3.3120     4.8800    -0.3710 c          1 1YM       0.718600
     15 C22         -0.7860    -1.0430    -0.3100 cc         1 1YM       0.457900
     16 N23         -0.7390    -2.3310     0.0210 nd         1 1YM      -0.628000
     17 C24         -1.8700    -2.9950    -0.4500 cd         1 1YM       0.151300
     18 C27         -2.0660    -4.4840    -0.1780 c3         1 1YM       0.293700
     19 N3           6.2970    -0.3860    -0.1240 ns         1 1YM      -0.532900
     20 C4           5.2020     0.4250    -0.2760 c          1 1YM       0.660100
     21 N12          2.5760     1.5500     0.5110 nb         1 1YM      -0.673000
     22 N17         -3.3420     1.7760     1.7950 nb         1 1YM      -0.704000
     23 C18         -2.1230     1.2600     1.5330 ca         1 1YM       0.319900
     24 O20         -2.5550     5.4490    -1.1430 o          1 1YM      -0.708000
     25 O21         -4.4270     5.3000    -0.0990 o          1 1YM      -0.708000
     26 C25         -2.7380    -2.1920    -1.1600 cc         1 1YM      -0.260000
     27 S26         -2.1620    -0.5550    -1.2730 ss         1 1YM       0.177600
     28 F28         -3.2260    -4.9520    -0.6950 f          1 1YM      -0.113000
     29 F29         -1.0720    -5.2290    -0.7140 f          1 1YM      -0.113000
     30 F30         -2.0930    -4.7560     1.1480 f          1 1YM      -0.113000
     31 H1           8.4290    -2.0070    -0.7530 hc         1 1YM       0.038700
     32 H2           9.6830    -0.7970    -0.4060 hc         1 1YM       0.038700
     33 H3           8.6410    -1.3920     0.9050 hc         1 1YM       0.038700
     34 H4           7.9290     0.8980     0.1470 h1         1 1YM       0.050700
     35 H5           7.7170     0.2830    -1.5110 h1         1 1YM       0.050700
     36 H6           4.1400    -1.1730     0.3690 hn         1 1YM       0.147000
     37 H7           1.8460    -1.6220    -0.3860 ha         1 1YM       0.137000
     38 H8           1.2210     3.0520     0.9550 h4         1 1YM       0.035100
     39 H9          -0.8930     3.5480    -0.6830 ha         1 1YM       0.143000
     40 H10         -4.6840     3.3080     1.4120 h4         1 1YM       0.038100
     41 H11          6.1360    -1.3160     0.2400 hn         1 1YM       0.305500
     42 H12         -1.8720     0.3390     2.0570 h4         1 1YM      -0.001900
     43 H14         -3.6760    -2.4570    -1.6310 h4         1 1YM       0.172000
@<TRIPOS>BOND
     1     1     2 1   
     2     1    31 1   
     3     1    32 1   
     4     1    33 1   
     5     2    19 1   
     6     2    34 1   
     7     2    35 1   
     8     3    20 2   
     9     4     5 1   
    10     4    20 1   
    11     4    36 1   
    12     5     6 ar  
    13     5    21 ar  
    14     6     7 ar  
    15     6    37 1   
    16     7     8 ar  
    17     7    15 1   
    18     8     9 ar  
    19     8    10 1   
    20     9    21 ar  
    21     9    38 1   
    22    10    11 ar  
    23    10    23 ar  
    24    11    12 ar  
    25    11    39 1   
    26    12    13 ar  
    27    12    14 1   
    28    13    22 ar  
    29    13    40 1   
    30    14    24 1   
    31    14    25 1   
    32    15    16 2   
    33    15    27 1   
    34    16    17 1   
    35    17    18 1   
    36    17    26 2   
    37    18    28 1   
    38    18    29 1   
    39    18    30 1   
    40    19    20 1   
    41    19    41 1   
    42    22    23 ar  
    43    23    42 1   
    44    26    27 1   
    45    26    43 1   
@<TRIPOS>SUBSTRUCTURE
     1 1YM         1 TEMP              0 ****  ****    0 ROOT
