@<TRIPOS>MOLECULE
1YM
   43    45     1     0     0
SMALL
abcg2


@<TRIPOS>ATOM
      1 C1           8.5680    -1.1120    -0.2840 c3         1 1YM      -0.110100
      2 C2           7.5590     0.0200    -0.2920 c3         1 1YM       0.118000
      3 O5           5.1820     1.4630    -0.4910 o          1 1YM      -0.582100
      4 N6           3.9570    -0.3680     0.1670 ns         1 1YM      -0.349900
      5 C7           2.6990     0.1950     0.2780 ca         1 1YM       0.481900
      6 C8           1.5880    -0.6160     0.0450 ca         1 1YM      -0.184000
      7 C9           0.3140    -0.0870     0.1970 ca         1 1YM      -0.063500
      8 C10          0.1920     1.2580     0.5750 cp         1 1YM      -0.072000
      9 C11          1.3710     1.9650     0.7670 ca         1 1YM       0.378900
     10 C13         -1.1000     1.9430     0.7820 cp         1 1YM      -0.166000
     11 C14         -1.6280     2.8040    -0.1730 ca         1 1YM      -0.039000
     12 C15         -2.8510     3.4190     0.0540 ca         1 1YM      -0.183600
     13 C16         -3.4900     3.1380     1.2570 ca         1 1YM       0.353900
     14 C19         -3.4680     4.3580    -0.9750 c          1 1YM       0.718600
     15 C22         -0.8260    -0.9730    -0.0780 cc         1 1YM       0.457900
     16 N23         -0.6720    -2.2490    -0.2610 nd         1 1YM      -0.628000
     17 C24         -1.8480    -2.8560    -0.5410 cd         1 1YM       0.151300
     18 C27         -1.8410    -4.3270    -0.7770 c3         1 1YM       0.293700
     19 N3           6.2260    -0.4930    -0.0410 ns         1 1YM      -0.532900
     20 C4           5.1360     0.2980    -0.1390 c          1 1YM       0.660100
     21 N12          2.5890     1.4640     0.6400 nb         1 1YM      -0.673000
     22 N17         -2.9910     2.3370     2.1940 nb         1 1YM      -0.704000
     23 C18         -1.8240     1.7580     1.9580 ca         1 1YM       0.319900
     24 O20         -2.8000     4.5590    -2.0050 o          1 1YM      -0.708000
     25 O21         -4.5820     4.8330    -0.6900 o          1 1YM      -0.708000
     26 C25         -2.9400    -2.0490    -0.5860 cc         1 1YM      -0.260000
     27 S26         -2.4710    -0.4490    -0.2500 ss         1 1YM       0.177600
     28 F28         -3.0760    -4.7980    -0.9640 f          1 1YM      -0.113000
     29 F29         -1.1190    -4.6470    -1.8560 f          1 1YM      -0.113000
     30 F30         -1.3060    -4.9860     0.2560 f          1 1YM      -0.113000
     31 H1           8.3530    -1.8440    -1.0630 hc         1 1YM       0.038700
     32 H2           9.5680    -0.7170    -0.4600 hc         1 1YM       0.038700
     33 H3           8.5820    -1.6280     0.6760 hc         1 1YM       0.038700
     34 H4           7.8330     0.7680     0.4570 h1         1 1YM       0.050700
     35 H5           7.5720     0.5220    -1.2600 h1         1 1YM       0.050700
     36 H6           3.9820    -1.3760     0.1450 hn         1 1YM       0.147000
     37 H7           1.7170    -1.6430    -0.2670 ha         1 1YM       0.137000
     38 H8           1.3130     3.0070     1.0630 h4         1 1YM       0.035100
     39 H9          -1.0960     2.9850    -1.0980 ha         1 1YM       0.143000
     40 H10         -4.4500     3.5900     1.4740 h4         1 1YM       0.038100
     41 H11          6.1530    -1.3760     0.4400 hn         1 1YM       0.305500
     42 H12         -1.4360     1.1030     2.7320 h4         1 1YM      -0.001900
     43 H14         -3.9700    -2.3020    -0.7840 h4         1 1YM       0.172000
@<TRIPOS>BOND
     1     1     2 1   
     2     1    31 1   
     3     1    32 1   
     4     1    33 1   
     5     2    19 1   
     6     2    34 1   
     7     2    35 1   
     8     3    20 2   
     9     4     5 1   
    10     4    20 1   
    11     4    36 1   
    12     5     6 ar  
    13     5    21 ar  
    14     6     7 ar  
    15     6    37 1   
    16     7     8 ar  
    17     7    15 1   
    18     8     9 ar  
    19     8    10 1   
    20     9    21 ar  
    21     9    38 1   
    22    10    11 ar  
    23    10    23 ar  
    24    11    12 ar  
    25    11    39 1   
    26    12    13 ar  
    27    12    14 1   
    28    13    22 ar  
    29    13    40 1   
    30    14    24 1   
    31    14    25 1   
    32    15    16 2   
    33    15    27 1   
    34    16    17 1   
    35    17    18 1   
    36    17    26 2   
    37    18    28 1   
    38    18    29 1   
    39    18    30 1   
    40    19    20 1   
    41    19    41 1   
    42    22    23 ar  
    43    23    42 1   
    44    26    27 1   
    45    26    43 1   
@<TRIPOS>SUBSTRUCTURE
     1 1YM         1 TEMP              0 ****  ****    0 ROOT
