@<TRIPOS>MOLECULE
1YN
   87    93     1     0     0
SMALL
No Charge or Current Charge


@<TRIPOS>ATOM
      1 C12          9.1520    13.3670    19.5370 ca         1 1YN      -0.075500
      2 C11          8.5590    12.4900    20.4720 ca         1 1YN       0.022600
      3 C01          3.5800    14.4340    19.0280 c3         1 1YN      -0.088100
      4 C02          3.0180    14.1740    20.4420 c3         1 1YN      -0.090400
      5 C03          4.0610    14.3240    21.5800 c3         1 1YN       0.153700
      6 C04          3.4000    14.1750    22.9680 c3         1 1YN      -0.102100
      7 N05          5.2010    13.3900    21.4160 n          1 1YN      -0.172800
      8 C06          6.4390    13.8090    20.9230 c          1 1YN       0.565000
      9 O07          6.7820    14.9490    20.6340 o          1 1YN      -0.559000
     10 N08          7.1780    12.6500    20.8690 n          1 1YN      -0.243500
     11 C09          6.3660    11.6310    21.3390 cc         1 1YN       0.363800
     12 N10          5.1590    12.0220    21.6700 n2         1 1YN      -0.483300
     13 C13         10.4650    13.1530    19.0790 ca         1 1YN      -0.154000
     14 C14         11.2080    12.0410    19.5150 ca         1 1YN       0.300000
     15 C15         10.6040    11.1400    20.4080 ca         1 1YN      -0.154000
     16 C16          9.2920    11.3490    20.8680 ca         1 1YN      -0.075500
     17 N17         12.5290    11.8090    19.0650 nh         1 1YN      -0.791400
     18 C18         12.8830    10.5100    18.4060 c6         1 1YN       0.195300
     19 C19         14.4090    10.1760    18.4970 c6         1 1YN       0.182300
     20 N20         15.2840    11.3030    18.0380 nh         1 1YN      -0.774400
     21 C21         14.9280    12.6020    18.6960 c6         1 1YN       0.182300
     22 C22         13.4020    12.9370    18.6050 c6         1 1YN       0.195300
     23 C23         16.6090    11.0750    17.5920 ca         1 1YN       0.244000
     24 C24         17.2130    11.9820    16.6980 ca         1 1YN      -0.114000
     25 C25         18.5270    11.7740    16.2410 ca         1 1YN      -0.140000
     26 C26         19.2590    10.6560    16.6690 ca         1 1YN       0.107100
     27 C27         18.6650     9.7400    17.5630 ca         1 1YN      -0.140000
     28 C28         17.3490     9.9510    18.0170 ca         1 1YN      -0.114000
     29 O29         20.5420    10.5030    16.1880 os         1 1YN      -0.348100
     30 C30         21.3790     9.3890    16.5640 c3         1 1YN       0.154600
     31 C31         22.7500     9.5160    15.8530 c5         1 1YN       0.138300
     32 C32         22.6980     9.6280    14.2990 c5         1 1YN       0.133600
     33 O33         23.3120    10.9090    14.0330 os         1 1YN      -0.433000
     34 C34         24.2110    11.1650    15.1260 c5         1 1YN       0.424300
     35 O35         23.4240    10.7370    16.2550 os         1 1YN      -0.474000
     36 C36         24.4670    12.6860    15.2400 c3         1 1YN       0.098600
     37 N37         25.3430    13.0910    16.3570 na         1 1YN      -0.073700
     38 C38         25.0950    12.9520    17.7020 cc         1 1YN       0.433400
     39 N39         26.1340    13.4300    18.3640 nd         1 1YN      -0.709000
     40 C40         27.0060    13.8560    17.3740 cd         1 1YN       0.520900
     41 N41         26.5550    13.6660    16.1400 nc         1 1YN      -0.535800
     42 C42         25.5130    10.3380    14.9990 ca         1 1YN      -0.124300
     43 C43         26.2700    10.3030    13.7960 ca         1 1YN       0.166000
     44 C44         27.4580     9.5570    13.7190 ca         1 1YN      -0.103000
     45 C45         27.9240     8.8480    14.8320 ca         1 1YN       0.140000
     46 C46         27.2080     8.8890    16.0340 ca         1 1YN      -0.107000
     47 C47         26.0190     9.6310    16.1200 ca         1 1YN      -0.070000
     48 Cl8         29.4140     7.9210    14.7260 cl         1 1YN      -0.197000
     49 Cl9         25.7960    11.1990    12.3510 cl         1 1YN      -0.190000
     50 H1           8.6020    14.2150    19.1420 ha         1 1YN       0.126500
     51 H2           2.7790    14.3720    18.2820 hc         1 1YN       0.036367
     52 H3           4.0290    15.4330    18.9660 hc         1 1YN       0.036367
     53 H4           4.3450    13.6930    18.7650 hc         1 1YN       0.036367
     54 H6           2.5870    13.1650    20.4750 hc         1 1YN       0.051200
     55 H7           4.4530    15.3490    21.5280 h1         1 1YN       0.076700
     56 H8           4.1440    14.3070    23.7630 hc         1 1YN       0.047367
     57 H9           2.6170    14.9300    23.1060 hc         1 1YN       0.047367
     58 H10          2.9450    13.1840    23.0830 hc         1 1YN       0.047367
     59 H11          6.7070    10.6050    21.3890 h5         1 1YN       0.071800
     60 H12         10.8890    13.8500    18.3620 ha         1 1YN       0.118500
     61 H13         11.1580    10.2740    20.7570 ha         1 1YN       0.118500
     62 H14          8.8690    10.6280    21.5620 ha         1 1YN       0.126500
     63 H15         12.5990    10.5520    17.3440 h1         1 1YN       0.048700
     64 H16         12.3220     9.6780    18.8530 h1         1 1YN       0.048700
     65 H17         14.5970     9.2770    17.8910 h1         1 1YN       0.047450
     66 H18         14.6490     9.9230    19.5400 h1         1 1YN       0.047450
     67 H19         15.2120    12.5610    19.7580 h1         1 1YN       0.047450
     68 H20         15.4890    13.4350    18.2490 h1         1 1YN       0.047450
     69 H21         13.2140    13.8360    19.2100 h1         1 1YN       0.048700
     70 H22         13.1620    13.1890    17.5620 h1         1 1YN       0.048700
     71 H23         16.6570    12.8460    16.3460 ha         1 1YN       0.117500
     72 H24         18.9780    12.4810    15.5490 ha         1 1YN       0.121500
     73 H25         19.2030     8.8650    17.9170 ha         1 1YN       0.121500
     74 H26         16.9150     9.2400    18.7130 ha         1 1YN       0.117500
     75 H27         20.9140     8.4390    16.2690 h1         1 1YN       0.048200
     76 H28         21.5420     9.3730    17.6490 h1         1 1YN       0.048200
     77 H29         23.3690     8.6570    16.1460 h1         1 1YN       0.073700
     78 H30         21.6780     9.6130    13.8940 h1         1 1YN       0.071700
     79 H31         23.2840     8.8330    13.8180 h1         1 1YN       0.071700
     80 H32         24.9070    13.0400    14.3010 h1         1 1YN       0.096200
     81 H33         23.5010    13.1890    15.3570 h1         1 1YN       0.096200
     82 H34         24.1880    12.5190    18.1080 h5         1 1YN       0.069100
     83 H35         27.9670    14.3040    17.6070 h5         1 1YN       0.063100
     84 H36         28.0240     9.5370    12.7930 ha         1 1YN       0.147000
     85 H37         27.5770     8.3490    16.9030 ha         1 1YN       0.136000
     86 H38         25.4960     9.6570    17.0740 ha         1 1YN       0.135000
     87 H5           2.1930    14.8740    20.6210 hc         1 1YN       0.051200
@<TRIPOS>BOND
     1     1     2 ar  
     2     1    13 ar  
     3     1    50 1   
     4     2    10 1   
     5     2    16 ar  
     6     3     4 1   
     7     3    51 1   
     8     3    52 1   
     9     3    53 1   
    10     4     5 1   
    11     4    54 1   
    12     4    87 1   
    13     5     6 1   
    14     5     7 1   
    15     5    55 1   
    16     6    56 1   
    17     6    57 1   
    18     6    58 1   
    19     7     8 1   
    20     7    12 1   
    21     8     9 2   
    22     8    10 1   
    23    10    11 1   
    24    11    12 2   
    25    11    59 1   
    26    13    14 ar  
    27    13    60 1   
    28    14    15 ar  
    29    14    17 1   
    30    15    16 ar  
    31    15    61 1   
    32    16    62 1   
    33    17    18 1   
    34    17    22 1   
    35    18    19 1   
    36    18    63 1   
    37    18    64 1   
    38    19    20 1   
    39    19    65 1   
    40    19    66 1   
    41    20    21 1   
    42    20    23 1   
    43    21    22 1   
    44    21    67 1   
    45    21    68 1   
    46    22    69 1   
    47    22    70 1   
    48    23    24 ar  
    49    23    28 ar  
    50    24    25 ar  
    51    24    71 1   
    52    25    26 ar  
    53    25    72 1   
    54    26    27 ar  
    55    26    29 1   
    56    27    28 ar  
    57    27    73 1   
    58    28    74 1   
    59    29    30 1   
    60    30    31 1   
    61    30    75 1   
    62    30    76 1   
    63    31    32 1   
    64    31    35 1   
    65    31    77 1   
    66    32    33 1   
    67    32    78 1   
    68    32    79 1   
    69    33    34 1   
    70    34    35 1   
    71    34    36 1   
    72    34    42 1   
    73    36    37 1   
    74    36    80 1   
    75    36    81 1   
    76    37    38 1   
    77    37    41 1   
    78    38    39 2   
    79    38    82 1   
    80    39    40 1   
    81    40    41 2   
    82    40    83 1   
    83    42    43 ar  
    84    42    47 ar  
    85    43    44 ar  
    86    43    49 1   
    87    44    45 ar  
    88    44    84 1   
    89    45    46 ar  
    90    45    48 1   
    91    46    47 ar  
    92    46    85 1   
    93    47    86 1   
@<TRIPOS>SUBSTRUCTURE
     1 1YN         1 TEMP              0 ****  ****    0 ROOT
