@<TRIPOS>MOLECULE
1YN
   87    93     1     0     0
SMALL
abcg2


@<TRIPOS>ATOM
      1 C12          9.4730    13.2890    19.2480 ca         1 1YN      -0.075500
      2 C11          8.7990    12.4070    20.0810 ca         1 1YN       0.022600
      3 C01          4.1660    15.4240    19.5320 c3         1 1YN      -0.088100
      4 C02          3.6520    14.8990    20.8690 c3         1 1YN      -0.090400
      5 C03          4.7630    14.6160    21.8830 c3         1 1YN       0.153700
      6 C04          4.2250    14.1420    23.2280 c3         1 1YN      -0.102100
      7 N05          5.7230    13.6550    21.3440 n          1 1YN      -0.172800
      8 C06          7.0380    13.9010    21.0720 c          1 1YN       0.565000
      9 O07          7.6910    14.9210    21.2720 o          1 1YN      -0.559000
     10 N08          7.4770    12.6920    20.5170 n          1 1YN      -0.243500
     11 C09          6.4070    11.8360    20.5040 cc         1 1YN       0.363800
     12 N10          5.3380    12.3830    20.9890 n2         1 1YN      -0.483300
     13 C13         10.7590    12.9980    18.8130 ca         1 1YN      -0.154000
     14 C14         11.4080    11.8120    19.1960 ca         1 1YN       0.300000
     15 C15         10.7020    10.9310    20.0360 ca         1 1YN      -0.154000
     16 C16          9.4240    11.2270    20.4770 ca         1 1YN      -0.075500
     17 N17         12.7180    11.5220    18.8050 nh         1 1YN      -0.791400
     18 C18         13.0140    10.1520    18.3810 c6         1 1YN       0.195300
     19 C19         14.5090     9.8830    18.3720 c6         1 1YN       0.182300
     20 N20         15.1950    10.8470    17.5260 nh         1 1YN      -0.774400
     21 C21         14.9170    12.2110    17.9790 c6         1 1YN       0.182300
     22 C22         13.4260    12.4990    17.9890 c6         1 1YN       0.195300
     23 C23         16.5430    10.5740    17.1990 ca         1 1YN       0.244000
     24 C24         17.2040    11.3810    16.2570 ca         1 1YN      -0.114000
     25 C25         18.5130    11.1330    15.8920 ca         1 1YN      -0.140000
     26 C26         19.2140    10.0580    16.4460 ca         1 1YN       0.107100
     27 C27         18.5750     9.2390    17.3680 ca         1 1YN      -0.140000
     28 C28         17.2560     9.5050    17.7440 ca         1 1YN      -0.114000
     29 O29         20.5020     9.8950    16.0180 os         1 1YN      -0.348100
     30 C30         21.2920     8.8830    16.6240 c3         1 1YN       0.154600
     31 C31         22.7040     8.9860    16.0940 c5         1 1YN       0.138300
     32 C32         22.8360     9.0380    14.5650 c5         1 1YN       0.133600
     33 O33         23.0750    10.4210    14.2880 os         1 1YN      -0.433000
     34 C34         23.7860    10.9240    15.3950 c5         1 1YN       0.424300
     35 O35         23.2870    10.2290    16.5230 os         1 1YN      -0.474000
     36 C36         23.4060    12.4030    15.5460 c3         1 1YN       0.098600
     37 N37         24.0720    13.0200    16.6730 na         1 1YN      -0.073700
     38 C38         23.7330    12.9840    17.9720 cc         1 1YN       0.433400
     39 N39         24.6440    13.6140    18.6980 nd         1 1YN      -0.709000
     40 C40         25.5480    14.0250    17.7670 cd         1 1YN       0.520900
     41 N41         25.2450    13.6880    16.5270 nc         1 1YN      -0.535800
     42 C42         25.2970    10.6970    15.2640 ca         1 1YN      -0.124300
     43 C43         26.0410    11.0820    14.1450 ca         1 1YN       0.166000
     44 C44         27.4120    10.8740    14.0690 ca         1 1YN      -0.103000
     45 C45         28.0580    10.2740    15.1400 ca         1 1YN       0.140000
     46 C46         27.3600     9.8870    16.2730 ca         1 1YN      -0.107000
     47 C47         25.9910    10.1050    16.3170 ca         1 1YN      -0.070000
     48 CL8         29.7820    10.0110    15.0500 cl         1 1YN      -0.197000
     49 CL9         25.3050    11.8700    12.7660 cl         1 1YN      -0.190000
     50 H1           8.9900    14.2010    18.9250 ha         1 1YN       0.126500
     51 H2           3.3370    15.6390    18.8560 hc         1 1YN       0.036367
     52 H3           4.7390    16.3440    19.6670 hc         1 1YN       0.036367
     53 H4           4.8140    14.6940    19.0420 hc         1 1YN       0.036367
     54 H6           3.0710    13.9850    20.7200 hc         1 1YN       0.051200
     55 H7           5.3510    15.5240    22.0260 h1         1 1YN       0.076700
     56 H8           5.0410    13.9650    23.9300 hc         1 1YN       0.047367
     57 H9           3.5640    14.9010    23.6480 hc         1 1YN       0.047367
     58 H10          3.6570    13.2180    23.1120 hc         1 1YN       0.047367
     59 H11          6.4630    10.8310    20.1200 h5         1 1YN       0.071800
     60 H12         11.2420    13.7000    18.1500 ha         1 1YN       0.118500
     61 H13         11.1660    10.0180    20.3810 ha         1 1YN       0.118500
     62 H14          8.9150    10.5440    21.1440 ha         1 1YN       0.126500
     63 H15         12.6100     9.9790    17.3720 h1         1 1YN       0.048700
     64 H16         12.5430     9.4430    19.0540 h1         1 1YN       0.048700
     65 H17         14.6720     8.8790    17.9800 h1         1 1YN       0.047450
     66 H18         14.8890     9.9090    19.4060 h1         1 1YN       0.047450
     67 H19         15.3200    12.3630    18.9930 h1         1 1YN       0.047450
     68 H20         15.4010    12.9250    17.3180 h1         1 1YN       0.047450
     69 H21         13.2800    13.4930    18.4090 h1         1 1YN       0.048700
     70 H22         13.0450    12.5060    16.9560 h1         1 1YN       0.048700
     71 H23         16.6780    12.2040    15.7910 ha         1 1YN       0.117500
     72 H24         19.0080    11.7630    15.1630 ha         1 1YN       0.121500
     73 H25         19.0840     8.3970    17.8130 ha         1 1YN       0.121500
     74 H26         16.7990     8.8590    18.4790 ha         1 1YN       0.117500
     75 H27         20.8950     7.8890    16.3900 h1         1 1YN       0.048200
     76 H28         21.3030     9.0070    17.7110 h1         1 1YN       0.048200
     77 H29         23.2830     8.1580    16.5090 h1         1 1YN       0.073700
     78 H30         21.9290     8.7430    14.0430 h1         1 1YN       0.071700
     79 H31         23.6770     8.4310    14.2210 h1         1 1YN       0.071700
     80 H32         23.6730    12.9570    14.6520 h1         1 1YN       0.096200
     81 H33         22.3300    12.4520    15.6990 h1         1 1YN       0.096200
     82 H34         22.8380    12.5020    18.3290 h5         1 1YN       0.069100
     83 H35         26.4380    14.5850    18.0050 h5         1 1YN       0.063100
     84 H36         27.9610    11.1780    13.1910 ha         1 1YN       0.147000
     85 H37         27.8730     9.4240    17.1040 ha         1 1YN       0.136000
     86 H38         25.4370     9.8090    17.1950 ha         1 1YN       0.135000
     87 H5           2.9770    15.6290    21.3230 hc         1 1YN       0.051200
@<TRIPOS>BOND
     1     1     2 ar  
     2     1    13 ar  
     3     1    50 1   
     4     2    10 1   
     5     2    16 ar  
     6     3     4 1   
     7     3    51 1   
     8     3    52 1   
     9     3    53 1   
    10     4     5 1   
    11     4    54 1   
    12     4    87 1   
    13     5     6 1   
    14     5     7 1   
    15     5    55 1   
    16     6    56 1   
    17     6    57 1   
    18     6    58 1   
    19     7     8 1   
    20     7    12 1   
    21     8     9 2   
    22     8    10 1   
    23    10    11 1   
    24    11    12 2   
    25    11    59 1   
    26    13    14 ar  
    27    13    60 1   
    28    14    15 ar  
    29    14    17 1   
    30    15    16 ar  
    31    15    61 1   
    32    16    62 1   
    33    17    18 1   
    34    17    22 1   
    35    18    19 1   
    36    18    63 1   
    37    18    64 1   
    38    19    20 1   
    39    19    65 1   
    40    19    66 1   
    41    20    21 1   
    42    20    23 1   
    43    21    22 1   
    44    21    67 1   
    45    21    68 1   
    46    22    69 1   
    47    22    70 1   
    48    23    24 ar  
    49    23    28 ar  
    50    24    25 ar  
    51    24    71 1   
    52    25    26 ar  
    53    25    72 1   
    54    26    27 ar  
    55    26    29 1   
    56    27    28 ar  
    57    27    73 1   
    58    28    74 1   
    59    29    30 1   
    60    30    31 1   
    61    30    75 1   
    62    30    76 1   
    63    31    32 1   
    64    31    35 1   
    65    31    77 1   
    66    32    33 1   
    67    32    78 1   
    68    32    79 1   
    69    33    34 1   
    70    34    35 1   
    71    34    36 1   
    72    34    42 1   
    73    36    37 1   
    74    36    80 1   
    75    36    81 1   
    76    37    38 1   
    77    37    41 1   
    78    38    39 2   
    79    38    82 1   
    80    39    40 1   
    81    40    41 2   
    82    40    83 1   
    83    42    43 ar  
    84    42    47 ar  
    85    43    44 ar  
    86    43    49 1   
    87    44    45 ar  
    88    44    84 1   
    89    45    46 ar  
    90    45    48 1   
    91    46    47 ar  
    92    46    85 1   
    93    47    86 1   
@<TRIPOS>SUBSTRUCTURE
     1 1YN         1 TEMP              0 ****  ****    0 ROOT
