@<TRIPOS>MOLECULE
1YO
   27    28     1     0     0
SMALL
No Charge or Current Charge


@<TRIPOS>ATOM
      1 CAA          2.0410     2.1780    -0.9890 c3         1 1YO      -0.055800
      2 CAC          4.6680    -0.4830    -0.1480 ca         1 1YO      -0.094000
      3 CAD          3.9480    -1.3550     0.6820 ca         1 1YO      -0.116000
      4 CAE          4.0400     0.6550    -0.6800 ca         1 1YO      -0.114000
      5 CAF          2.6030    -1.0880     0.9810 ca         1 1YO      -0.087000
      6 CAG         -4.3670     0.1540     0.3190 cc         1 1YO       0.420400
      7 CAH          0.4980     0.3030     0.8100 c3         1 1YO       0.130900
      8 CAL          2.6890     0.9330    -0.3880 ca         1 1YO      -0.050300
      9 CAM          1.9630     0.0530     0.4550 ca         1 1YO      -0.098300
     10 CAN         -2.2120    -0.0120     0.1520 cc         1 1YO       0.448800
     11 NAI         -3.8140     0.7650     1.3670 nd         1 1YO      -0.359000
     12 NAJ         -2.4440     0.6600     1.2610 nd         1 1YO      -0.363000
     13 NAO         -3.3750    -0.3690    -0.5040 na         1 1YO      -0.185500
     14 SAK         -0.6190    -0.4320    -0.4700 ss         1 1YO      -0.372300
     15 HAC          1.1250     1.9260    -1.5350 hc         1 1YO       0.048033
     16 HAA          1.7830     2.9030    -0.2080 hc         1 1YO       0.048033
     17 HAB          2.7100     2.6830    -1.6960 hc         1 1YO       0.048033
     18 HAD          5.7100    -0.6880    -0.3800 ha         1 1YO       0.115000
     19 HAE          4.4320    -2.2380     1.0930 ha         1 1YO       0.117000
     20 HAF          4.6090     1.3230    -1.3230 ha         1 1YO       0.114000
     21 HAG          2.0540    -1.7730     1.6240 ha         1 1YO       0.117000
     22 HAH         -5.4250     0.0580     0.1050 h5         1 1YO       0.075100
     23 HAI          0.2710    -0.1510     1.7840 h1         1 1YO       0.089200
     24 HAJ          0.3000     1.3780     0.8960 h1         1 1YO       0.089200
     25 HAL         -3.1630    -0.5860    -2.5390 hn         1 1YO       0.432000
     26 HAK         -3.2050    -2.0680    -1.6430 hn         1 1YO       0.432000
     27 NAB         -3.5330    -1.1050    -1.7410 nv         1 1YO      -0.827500
@<TRIPOS>BOND
     1     1     8 1   
     2     1    15 1   
     3     1    16 1   
     4     1    17 1   
     5     2     3 ar  
     6     2     4 ar  
     7     2    18 1   
     8     3     5 ar  
     9     3    19 1   
    10     4     8 ar  
    11     4    20 1   
    12     5     9 ar  
    13     5    21 1   
    14     6    11 2   
    15     6    13 1   
    16     6    22 1   
    17     7     9 1   
    18     7    14 1   
    19     7    23 1   
    20     7    24 1   
    21     8     9 ar  
    22    10    12 2   
    23    10    13 1   
    24    10    14 1   
    25    11    12 1   
    26    13    27 1   
    27    25    27 1   
    28    26    27 1   
@<TRIPOS>SUBSTRUCTURE
     1 1YO         1 TEMP              0 ****  ****    0 ROOT
