@<TRIPOS>MOLECULE
1YO
   27    28     1     0     0
SMALL
abcg2


@<TRIPOS>ATOM
      1 CAA          1.8790     2.0930    -0.9570 c3         1 1YO      -0.055800
      2 CAC          4.5770    -0.4760    -0.2240 ca         1 1YO      -0.094000
      3 CAD          3.9330    -1.3310     0.6580 ca         1 1YO      -0.116000
      4 CAE          3.9020     0.6220    -0.7390 ca         1 1YO      -0.114000
      5 CAF          2.6170    -1.0760     1.0140 ca         1 1YO      -0.087000
      6 CAG         -4.2430     0.2340     0.2040 cc         1 1YO       0.420400
      7 CAH          0.5110     0.2550     0.9050 c3         1 1YO       0.130900
      8 CAL          2.5810     0.8920    -0.3910 ca         1 1YO      -0.050300
      9 CAM          1.9370     0.0260     0.5030 ca         1 1YO      -0.098300
     10 CAN         -2.1070    -0.0190     0.1820 cc         1 1YO       0.448800
     11 NAI         -3.7700     0.8090     1.2660 nd         1 1YO      -0.359000
     12 NAJ         -2.4130     0.6500     1.2570 nd         1 1YO      -0.363000
     13 NAO         -3.2330    -0.3070    -0.5200 na         1 1YO      -0.185500
     14 SAK         -0.5410    -0.5220    -0.3730 ss         1 1YO      -0.372300
     15 HAC          0.9470     1.8200    -1.4560 hc         1 1YO       0.048033
     16 HAA          1.6250     2.8110    -0.1740 hc         1 1YO       0.048033
     17 HAB          2.5090     2.6060    -1.6820 hc         1 1YO       0.048033
     18 HAD          5.6040    -0.6600    -0.5120 ha         1 1YO       0.115000
     19 HAE          4.4500    -2.1890     1.0680 ha         1 1YO       0.117000
     20 HAF          4.4120     1.2860    -1.4270 ha         1 1YO       0.114000
     21 HAG          2.1080    -1.7400     1.7030 ha         1 1YO       0.117000
     22 HAH         -5.2760     0.1730    -0.0960 h5         1 1YO       0.075100
     23 HAI          0.2860    -0.2070     1.8650 h1         1 1YO       0.089200
     24 HAJ          0.2570     1.3120     0.9640 h1         1 1YO       0.089200
     25 HAL         -2.8520    -0.5190    -2.4370 hn         1 1YO       0.432000
     26 HAK         -3.0380    -1.9350    -1.6070 hn         1 1YO       0.432000
     27 NAB         -3.3760    -0.9860    -1.7090 nv         1 1YO      -0.827500
@<TRIPOS>BOND
     1     1     8 1   
     2     1    15 1   
     3     1    16 1   
     4     1    17 1   
     5     2     3 ar  
     6     2     4 ar  
     7     2    18 1   
     8     3     5 ar  
     9     3    19 1   
    10     4     8 ar  
    11     4    20 1   
    12     5     9 ar  
    13     5    21 1   
    14     6    11 2   
    15     6    13 1   
    16     6    22 1   
    17     7     9 1   
    18     7    14 1   
    19     7    23 1   
    20     7    24 1   
    21     8     9 ar  
    22    10    12 2   
    23    10    13 1   
    24    10    14 1   
    25    11    12 1   
    26    13    27 1   
    27    25    27 1   
    28    26    27 1   
@<TRIPOS>SUBSTRUCTURE
     1 1YO         1 TEMP              0 ****  ****    0 ROOT
