@<TRIPOS>MOLECULE
1YP
   47    50     1     0     0
SMALL
No Charge or Current Charge


@<TRIPOS>ATOM
      1 C1           8.5750    -3.4310     0.4010 c3         1 1YP      -0.111100
      2 C2           7.1140    -3.8420     0.6370 c3         1 1YP       0.114000
      3 C3           4.8240    -2.8680     0.3580 c          1 1YP       0.662100
      4 N6          -5.8890    -3.3860     1.1810 ns         1 1YP      -0.392400
      5 C7           0.1530    -0.8710    -0.5290 cp         1 1YP      -0.137000
      6 C8           0.7340    -2.1510    -0.7280 ca         1 1YP       0.396900
      7 C9          -1.2970    -0.6740    -0.8340 cp         1 1YP      -0.101000
      8 C10         -2.2860    -1.4710    -0.2160 ca         1 1YP      -0.025000
      9 C11         -3.6420    -1.2640    -0.5390 ca         1 1YP      -0.178900
     10 C12         -3.9640    -0.2720    -1.4790 ca         1 1YP       0.383900
     11 C13         -1.7350     0.2900    -1.7780 ca         1 1YP       0.373900
     12 C14         -4.6970    -2.0540     0.0790 cc         1 1YP       0.563200
     13 C15         -6.8050    -2.6950     0.4610 c          1 1YP       0.661100
     14 C16          0.5540     1.5670     0.1690 cc         1 1YP       0.460900
     15 N1           6.1890    -2.7750     0.2600 ns         1 1YP      -0.526900
     16 O1           4.2600    -3.8630     0.7860 o          1 1YP      -0.572100
     17 N2           4.2000    -1.7190    -0.0530 ns         1 1YP      -0.342900
     18 C4           2.8350    -1.4200    -0.1500 ca         1 1YP       0.516900
     19 C5           2.3740    -0.1150     0.0570 ca         1 1YP      -0.189000
     20 C6           1.0020     0.1880    -0.0890 ca         1 1YP      -0.046500
     21 N3           2.0430    -2.4270    -0.5540 nb         1 1YP      -0.669000
     22 N4          -3.0340     0.4950    -2.0940 nb         1 1YP      -0.663000
     23 N5          -4.5920    -3.0280     0.9800 nd         1 1YP      -0.470300
     24 O2          -8.0190    -2.8030     0.4420 o          1 1YP      -0.491000
     25 O3          -6.0150    -1.8440    -0.2400 os         1 1YP      -0.393700
     26 N7           1.2900     2.6280    -0.1450 nd         1 1YP      -0.600000
     27 C17          0.6660     3.7980     0.2830 cd         1 1YP       0.162300
     28 C18         -0.5260     3.5900     0.9440 cc         1 1YP      -0.221000
     29 S1          -0.9110     1.8980     1.0640 ss         1 1YP       0.072600
     30 F1           0.5540     6.1780     0.4950 f          1 1YP      -0.104667
     31 F2           2.5220     5.2630     0.6000 f          1 1YP      -0.104667
     32 F3           1.4770     5.3840    -1.3050 f          1 1YP      -0.104667
     33 H1           9.2500    -4.2450     0.6910 hc         1 1YP       0.043033
     34 H2           8.7470    -3.2020    -0.6570 hc         1 1YP       0.043033
     35 H3           8.8300    -2.5460     0.9970 hc         1 1YP       0.043033
     36 H4           6.8850    -4.7390     0.0450 h1         1 1YP       0.053700
     37 H5           6.9670    -4.0830     1.6990 h1         1 1YP       0.053700
     38 H6          -6.1970    -4.1200     1.8220 hn         1 1YP       0.503000
     39 H7           0.1170    -2.9810    -1.0720 h4         1 1YP       0.031100
     40 H8          -1.9990    -2.2300     0.5110 ha         1 1YP       0.146000
     41 H9          -4.9990    -0.0760    -1.7600 h4         1 1YP       0.043100
     42 H10         -1.0120     0.9190    -2.2960 h4         1 1YP       0.035100
     43 H11          6.5680    -1.9100    -0.1040 hn         1 1YP       0.306500
     44 H12          4.8100    -0.9590    -0.3180 hn         1 1YP       0.153000
     45 H13          3.0820     0.6530     0.3580 ha         1 1YP       0.144000
     46 H14         -1.1980     4.3210     1.3740 h4         1 1YP       0.181000
     47 C19          1.3050     5.1570     0.0180 c3         1 1YP       0.296700
@<TRIPOS>BOND
     1     1     2 1   
     2     1    33 1   
     3     1    34 1   
     4     1    35 1   
     5     2    15 1   
     6     2    36 1   
     7     2    37 1   
     8     3    15 1   
     9     3    16 2   
    10     3    17 1   
    11     4    13 1   
    12     4    23 1   
    13     4    38 1   
    14     5     6 ar  
    15     5     7 1   
    16     5    20 ar  
    17     6    21 ar  
    18     6    39 1   
    19     7     8 ar  
    20     7    11 ar  
    21     8     9 ar  
    22     8    40 1   
    23     9    10 ar  
    24     9    12 1   
    25    10    22 ar  
    26    10    41 1   
    27    11    22 ar  
    28    11    42 1   
    29    12    23 2   
    30    12    25 1   
    31    13    24 2   
    32    13    25 1   
    33    14    20 1   
    34    14    26 2   
    35    14    29 1   
    36    15    43 1   
    37    17    18 1   
    38    17    44 1   
    39    18    19 ar  
    40    18    21 ar  
    41    19    20 ar  
    42    19    45 1   
    43    26    27 1   
    44    27    28 2   
    45    27    47 1   
    46    28    29 1   
    47    28    46 1   
    48    30    47 1   
    49    31    47 1   
    50    32    47 1   
@<TRIPOS>SUBSTRUCTURE
     1 1YP         1 TEMP              0 ****  ****    0 ROOT
