@<TRIPOS>MOLECULE
1YP
   47    50     1     0     0
SMALL
abcg2


@<TRIPOS>ATOM
      1 C1           8.4410    -3.3380     0.7740 c3         1 1YP      -0.111100
      2 C2           7.0900    -3.7870     0.2490 c3         1 1YP       0.114000
      3 C3           4.8370    -2.8350     0.0920 c          1 1YP       0.662100
      4 N6          -5.7480    -3.0040     1.5780 ns         1 1YP      -0.392400
      5 C7           0.1450    -0.9210    -0.6290 cp         1 1YP      -0.137000
      6 C8           0.7440    -2.1640    -0.7750 ca         1 1YP       0.396900
      7 C9          -1.2870    -0.7710    -0.9460 cp         1 1YP      -0.101000
      8 C10         -2.2630    -1.4140    -0.2050 ca         1 1YP      -0.025000
      9 C11         -3.5990    -1.2590    -0.5670 ca         1 1YP      -0.178900
     10 C12         -3.8990    -0.4610    -1.6670 ca         1 1YP       0.383900
     11 C13         -1.7010    -0.0040    -2.0380 ca         1 1YP       0.373900
     12 C14         -4.6410    -1.9150     0.2000 cc         1 1YP       0.563200
     13 C15         -6.6700    -2.5290     0.7170 c          1 1YP       0.661100
     14 C16          0.4940     1.4980     0.0370 cc         1 1YP       0.460900
     15 N1           6.1740    -2.6660     0.1910 ns         1 1YP      -0.526900
     16 O1           4.2940    -3.9230     0.1140 o          1 1YP      -0.572100
     17 N2           4.1560    -1.6280    -0.0030 ns         1 1YP      -0.342900
     18 C4           2.8090    -1.4200    -0.2000 ca         1 1YP       0.516900
     19 C5           2.3180    -0.1230    -0.0060 ca         1 1YP      -0.189000
     20 C6           0.9750     0.1340    -0.2180 ca         1 1YP      -0.046500
     21 N3           2.0270    -2.4190    -0.5750 nb         1 1YP      -0.669000
     22 N4          -2.9660     0.1490    -2.3860 nb         1 1YP      -0.663000
     23 N5          -4.4910    -2.6200     1.2550 nd         1 1YP      -0.470300
     24 O2          -7.8640    -2.6460     0.6690 o          1 1YP      -0.491000
     25 O3          -5.9290    -1.8150    -0.1870 os         1 1YP      -0.393700
     26 N7           1.2660     2.5360    -0.0440 nd         1 1YP      -0.600000
     27 C17          0.6100     3.6640     0.3190 cd         1 1YP       0.162300
     28 C18         -0.6850     3.5090     0.7000 cc         1 1YP      -0.221000
     29 S1          -1.1090     1.8650     0.5820 ss         1 1YP       0.072600
     30 F1           0.5930     5.9700     0.6880 f          1 1YP      -0.104667
     31 F2           2.4440     4.9210     1.0400 f          1 1YP      -0.104667
     32 F3           1.7610     5.2400    -0.9710 f          1 1YP      -0.104667
     33 H1           9.1320    -4.1790     0.7930 hc         1 1YP       0.043033
     34 H2           8.8790    -2.5660     0.1400 hc         1 1YP       0.043033
     35 H3           8.3600    -2.9420     1.7870 hc         1 1YP       0.043033
     36 H4           7.2080    -4.2450    -0.7380 h1         1 1YP       0.053700
     37 H5           6.6710    -4.5500     0.9050 h1         1 1YP       0.053700
     38 H6          -5.9220    -3.5700     2.3940 hn         1 1YP       0.503000
     39 H7           0.1390    -3.0060    -1.0970 h4         1 1YP       0.031100
     40 H8          -1.9900    -2.0180     0.6510 ha         1 1YP       0.146000
     41 H9          -4.9240    -0.3100    -1.9840 h4         1 1YP       0.043100
     42 H10         -0.9630     0.5040    -2.6500 h4         1 1YP       0.035100
     43 H11          6.5740    -1.7630    -0.0140 hn         1 1YP       0.306500
     44 H12          4.6920    -0.7910     0.1720 hn         1 1YP       0.153000
     45 H13          2.9750     0.6670     0.3310 ha         1 1YP       0.144000
     46 H14         -1.3980     4.2510     1.0240 h4         1 1YP       0.181000
     47 C19          1.3510     4.9560     0.2700 c3         1 1YP       0.296700
@<TRIPOS>BOND
     1     1     2 1   
     2     1    33 1   
     3     1    34 1   
     4     1    35 1   
     5     2    15 1   
     6     2    36 1   
     7     2    37 1   
     8     3    15 1   
     9     3    16 2   
    10     3    17 1   
    11     4    13 1   
    12     4    23 1   
    13     4    38 1   
    14     5     6 ar  
    15     5     7 1   
    16     5    20 ar  
    17     6    21 ar  
    18     6    39 1   
    19     7     8 ar  
    20     7    11 ar  
    21     8     9 ar  
    22     8    40 1   
    23     9    10 ar  
    24     9    12 1   
    25    10    22 ar  
    26    10    41 1   
    27    11    22 ar  
    28    11    42 1   
    29    12    23 2   
    30    12    25 1   
    31    13    24 2   
    32    13    25 1   
    33    14    20 1   
    34    14    26 2   
    35    14    29 1   
    36    15    43 1   
    37    17    18 1   
    38    17    44 1   
    39    18    19 ar  
    40    18    21 ar  
    41    19    20 ar  
    42    19    45 1   
    43    26    27 1   
    44    27    28 2   
    45    27    47 1   
    46    28    29 1   
    47    28    46 1   
    48    30    47 1   
    49    31    47 1   
    50    32    47 1   
@<TRIPOS>SUBSTRUCTURE
     1 1YP         1 TEMP              0 ****  ****    0 ROOT
