@<TRIPOS>MOLECULE
1YQ
   45    47     1     0     0
SMALL
No Charge or Current Charge


@<TRIPOS>ATOM
      1 O12         -3.6500     1.2110    -2.9930 o          1 1YQ      -0.520000
      2 C17          5.1750     3.6430     3.0100 cg         1 1YQ       0.271700
      3 C00         -1.8980    -2.0770     0.1350 ca         1 1YQ      -0.194000
      4 C01         -2.2970    -2.6740    -1.0700 ca         1 1YQ       0.160000
      5 C02         -1.3470    -3.0170    -2.0430 ca         1 1YQ      -0.128000
      6 C03          0.0140    -2.7570    -1.8150 ca         1 1YQ      -0.072000
      7 C04          0.4180    -2.1380    -0.6190 ca         1 1YQ       0.053100
      8 C05         -0.5340    -1.7880     0.3670 ca         1 1YQ       0.143100
      9 O0A          1.7520    -1.8620    -0.4300 os         1 1YQ      -0.235200
     10 O0B         -0.0900    -1.1860     1.5360 os         1 1YQ      -0.338100
     11 C0C          2.2140    -0.5730    -0.5320 ca         1 1YQ       0.134100
     12 C0D          2.0110     0.1610    -1.7130 ca         1 1YQ      -0.168000
     13 C0E          2.4680     1.4860    -1.7960 ca         1 1YQ      -0.093000
     14 C0F          3.1250     2.0740    -0.7010 ca         1 1YQ      -0.118000
     15 C0G          3.3370     1.3430     0.4880 ca         1 1YQ      -0.048800
     16 C0H          2.8790     0.0110     0.5580 ca         1 1YQ      -0.110000
     17 C0M          4.0200     1.9350     1.6560 cf         1 1YQ      -0.099200
     18 C0O         -0.9530    -0.5000     2.4730 c3         1 1YQ       0.140600
     19 C0P         -1.2530     0.9420     1.9840 c3         1 1YQ       0.077000
     20 N0S         -1.8700     1.0410     0.6360 n          1 1YQ      -0.312000
     21 C0V         -3.2750     0.9650     0.5160 c          1 1YQ       0.613000
     22 N0W         -3.7740     1.0300    -0.7470 ns         1 1YQ      -0.465500
     23 C0X         -3.0910     1.1740    -1.9110 c          1 1YQ       0.590200
     24 C0Y         -1.6470     1.2880    -1.7290 cc         1 1YQ      -0.382200
     25 C0Z         -1.0670     1.2330    -0.4840 cd         1 1YQ       0.006600
     26 C15          4.5320     3.1900     1.8180 ce         1 1YQ      -0.111700
     27 N19          5.6920     3.9730     4.0020 n1         1 1YQ      -0.449000
     28 H1          -2.6620    -1.8430     0.8680 ha         1 1YQ       0.144000
     29 H2          -1.6660    -3.4830    -2.9720 ha         1 1YQ       0.141000
     30 H3           0.7540    -3.0200    -2.5670 ha         1 1YQ       0.137000
     31 H7           1.5000    -0.2920    -2.5580 ha         1 1YQ       0.131000
     32 H8           2.3120     2.0590    -2.7080 ha         1 1YQ       0.118000
     33 H9           3.4650     3.1020    -0.7910 ha         1 1YQ       0.119000
     34 H10          3.0220    -0.5740     1.4620 ha         1 1YQ       0.134000
     35 H11          4.1200     1.2530     2.5040 ha         1 1YQ       0.187000
     36 H12         -1.8840    -1.0490     2.6570 h1         1 1YQ       0.075700
     37 H13         -0.4440    -0.4200     3.4420 h1         1 1YQ       0.075700
     38 H14         -1.9030     1.4340     2.7190 h1         1 1YQ       0.078700
     39 H15         -0.3110     1.5040     1.9820 h1         1 1YQ       0.078700
     40 H16         -4.7750     0.9580    -0.8290 hn         1 1YQ       0.345500
     41 H17         -1.0650     1.4200    -2.6340 ha         1 1YQ       0.223000
     42 H18         -0.0020     1.3130    -0.2780 h4         1 1YQ       0.215000
     43 H19          4.4690     3.9230     1.0170 ha         1 1YQ       0.202000
     44 O10         -4.0210     0.8240     1.4720 o          1 1YQ      -0.562000
     45 Cl1         -4.0010    -2.9920    -1.3580 cl         1 1YQ      -0.186000
@<TRIPOS>BOND
     1     1    23 2   
     2     2    26 1   
     3     2    27 3   
     4     3     4 ar  
     5     3     8 ar  
     6     3    28 1   
     7     4     5 ar  
     8     4    45 1   
     9     5     6 ar  
    10     5    29 1   
    11     6     7 ar  
    12     6    30 1   
    13     7     8 ar  
    14     7     9 1   
    15     8    10 1   
    16     9    11 1   
    17    10    18 1   
    18    11    12 ar  
    19    11    16 ar  
    20    12    13 ar  
    21    12    31 1   
    22    13    14 ar  
    23    13    32 1   
    24    14    15 ar  
    25    14    33 1   
    26    15    16 ar  
    27    15    17 1   
    28    16    34 1   
    29    17    26 2   
    30    17    35 1   
    31    18    19 1   
    32    18    36 1   
    33    18    37 1   
    34    19    20 1   
    35    19    38 1   
    36    19    39 1   
    37    20    21 1   
    38    20    25 1   
    39    21    22 1   
    40    21    44 2   
    41    22    23 1   
    42    22    40 1   
    43    23    24 1   
    44    24    25 2   
    45    24    41 1   
    46    25    42 1   
    47    26    43 1   
@<TRIPOS>SUBSTRUCTURE
     1 1YQ         1 TEMP              0 ****  ****    0 ROOT
