@<TRIPOS>MOLECULE
1YQ
   45    47     1     0     0
SMALL
abcg2


@<TRIPOS>ATOM
      1 O12         -3.4880     1.2670    -3.1640 o          1 1YQ      -0.520000
      2 C17          6.0500     3.3930     2.5030 cg         1 1YQ       0.271700
      3 C00         -1.9380    -2.0880    -0.0250 ca         1 1YQ      -0.194000
      4 C01         -2.0840    -2.8210    -1.1960 ca         1 1YQ       0.160000
      5 C02         -1.0050    -3.1880    -1.9760 ca         1 1YQ      -0.128000
      6 C03          0.2630    -2.7950    -1.5670 ca         1 1YQ      -0.072000
      7 C04          0.4330    -2.0550    -0.4150 ca         1 1YQ       0.053100
      8 C05         -0.6680    -1.6840     0.3710 ca         1 1YQ       0.143100
      9 O0A          1.6890    -1.7080     0.0050 os         1 1YQ      -0.235200
     10 O0B         -0.3760    -0.9640     1.4650 os         1 1YQ      -0.338100
     11 C0C          2.1100    -0.4290    -0.2120 ca         1 1YQ       0.134100
     12 C0D          1.6660     0.3450    -1.2740 ca         1 1YQ      -0.168000
     13 C0E          2.1780     1.6280    -1.4380 ca         1 1YQ      -0.093000
     14 C0F          3.1190     2.1390    -0.5650 ca         1 1YQ      -0.118000
     15 C0G          3.5730     1.3540     0.5000 ca         1 1YQ      -0.048800
     16 C0H          3.0620     0.0680     0.6670 ca         1 1YQ      -0.110000
     17 C0M          4.5630     1.8190     1.4640 cf         1 1YQ      -0.099200
     18 C0O         -1.3840    -0.4920     2.3450 c3         1 1YQ       0.140600
     19 C0P         -1.7640     0.9420     2.0210 c3         1 1YQ       0.077000
     20 N0S         -2.2400     1.1100     0.6530 n          1 1YQ      -0.312000
     21 C0V         -3.5420     0.7720     0.3550 c          1 1YQ       0.613000
     22 N0W         -3.8720     0.8700    -0.9700 ns         1 1YQ      -0.465500
     23 C0X         -3.0550     1.2460    -2.0270 c          1 1YQ       0.590200
     24 C0Y         -1.7160     1.5920    -1.6210 cc         1 1YQ      -0.382200
     25 C0Z         -1.3770     1.5120    -0.3230 cd         1 1YQ       0.006600
     26 C15          5.0870     3.0520     1.5180 ce         1 1YQ      -0.111700
     27 N19          6.8270     3.6920     3.3020 n1         1 1YQ      -0.449000
     28 H1          -2.8180    -1.8660     0.5610 ha         1 1YQ       0.144000
     29 H2          -1.1370    -3.7620    -2.8820 ha         1 1YQ       0.141000
     30 H3           1.1300    -3.0730    -2.1520 ha         1 1YQ       0.137000
     31 H7           0.9350    -0.0350    -1.9750 ha         1 1YQ       0.131000
     32 H8           1.8320     2.2300    -2.2680 ha         1 1YQ       0.118000
     33 H9           3.5010     3.1380    -0.7240 ha         1 1YQ       0.119000
     34 H10          3.4070    -0.5500     1.4870 ha         1 1YQ       0.134000
     35 H11          4.8880     1.0870     2.1950 ha         1 1YQ       0.187000
     36 H12         -2.2560    -1.1450     2.3620 h1         1 1YQ       0.075700
     37 H13         -0.9520    -0.5100     3.3450 h1         1 1YQ       0.075700
     38 H14         -2.5260     1.2780     2.7210 h1         1 1YQ       0.078700
     39 H15         -0.9010     1.5950     2.1450 h1         1 1YQ       0.078700
     40 H16         -4.8270     0.6220    -1.1970 hn         1 1YQ       0.345500
     41 H17         -1.0000     1.9190    -2.3590 ha         1 1YQ       0.223000
     42 H18         -0.3850     1.7720     0.0160 h4         1 1YQ       0.215000
     43 H19          4.8140     3.8440     0.8330 ha         1 1YQ       0.202000
     44 O10         -4.3330     0.4040     1.2000 o          1 1YQ      -0.562000
     45 CL1         -3.6830    -3.2790    -1.6810 cl         1 1YQ      -0.186000
@<TRIPOS>BOND
     1     1    23 2   
     2     2    26 1   
     3     2    27 3   
     4     3     4 ar  
     5     3     8 ar  
     6     3    28 1   
     7     4     5 ar  
     8     4    45 1   
     9     5     6 ar  
    10     5    29 1   
    11     6     7 ar  
    12     6    30 1   
    13     7     8 ar  
    14     7     9 1   
    15     8    10 1   
    16     9    11 1   
    17    10    18 1   
    18    11    12 ar  
    19    11    16 ar  
    20    12    13 ar  
    21    12    31 1   
    22    13    14 ar  
    23    13    32 1   
    24    14    15 ar  
    25    14    33 1   
    26    15    16 ar  
    27    15    17 1   
    28    16    34 1   
    29    17    26 2   
    30    17    35 1   
    31    18    19 1   
    32    18    36 1   
    33    18    37 1   
    34    19    20 1   
    35    19    38 1   
    36    19    39 1   
    37    20    21 1   
    38    20    25 1   
    39    21    22 1   
    40    21    44 2   
    41    22    23 1   
    42    22    40 1   
    43    23    24 1   
    44    24    25 2   
    45    24    41 1   
    46    25    42 1   
    47    26    43 1   
@<TRIPOS>SUBSTRUCTURE
     1 1YQ         1 TEMP              0 ****  ****    0 ROOT
