@<TRIPOS>MOLECULE
1YR
   45    47     1     0     0
SMALL
abcg2


@<TRIPOS>ATOM
      1 C15         -3.4640    -2.2490     2.2530 ce         1 1YR      -0.098700
      2 C17         -4.4250    -2.6170     3.2310 cg         1 1YR       0.272700
      3 C00          2.9480     3.2070    -1.0550 ca         1 1YR      -0.187000
      4 C01          2.5570     4.1670    -1.9780 ca         1 1YR       0.159000
      5 C02          1.2410     4.5710    -2.1060 ca         1 1YR      -0.128000
      6 C03          0.2890     3.9820    -1.2840 ca         1 1YR      -0.067000
      7 C04          0.6540     3.0280    -0.3570 ca         1 1YR       0.055100
      8 C05          1.9920     2.6330    -0.2250 ca         1 1YR       0.139100
      9 O0A         -0.2940     2.4950     0.4740 os         1 1YR      -0.235200
     10 O0B          2.2490     1.7040     0.7050 os         1 1YR      -0.335100
     11 C0C         -0.7500     1.2360     0.2520 ca         1 1YR       0.141100
     12 C0D         -0.3090     0.4330    -0.7910 ca         1 1YR      -0.150000
     13 C0E         -0.8590    -0.8350    -0.9240 ca         1 1YR       0.006100
     14 C0F         -1.8220    -1.3170    -0.0620 ca         1 1YR      -0.097000
     15 C0G         -2.2490    -0.4990     0.9860 ca         1 1YR      -0.035800
     16 C0H         -1.7260     0.7800     1.1290 ca         1 1YR      -0.120000
     17 C0M         -3.2200    -0.9620     1.9720 cf         1 1YR      -0.118200
     18 C0O          3.5270     1.0910     0.7120 c3         1 1YR       0.135600
     19 C0P          3.5380     0.0520     1.8080 c3         1 1YR       0.110000
     20 N0S          2.4860    -0.9480     1.6820 n          1 1YR      -0.306000
     21 C0V          2.6420    -1.9600     0.7620 c          1 1YR       0.615000
     22 N0W          1.6310    -2.8840     0.7450 ns         1 1YR      -0.462500
     23 C0X          0.4990    -2.9230     1.5470 c          1 1YR       0.593200
     24 C0Y          0.4070    -1.8130     2.4590 cc         1 1YR      -0.384200
     25 C0Z          1.3820    -0.8890     2.4810 cd         1 1YR       0.017600
     26 O10          3.6050    -2.0340     0.0260 o          1 1YR      -0.561000
     27 O12         -0.3000    -3.8360     1.4420 o          1 1YR      -0.535000
     28 N19         -5.2000    -2.9380     4.0240 n1         1 1YR      -0.451000
     29 H1          -2.9340    -3.0660     1.7790 ha         1 1YR       0.223000
     30 H3           3.9900     2.9260    -0.9880 ha         1 1YR       0.138000
     31 H4           0.9530     5.3190    -2.8290 ha         1 1YR       0.140000
     32 H5          -0.7510     4.2710    -1.3660 ha         1 1YR       0.139000
     33 H9           0.4290     0.7870    -1.4990 ha         1 1YR       0.141000
     34 H10         -2.2460    -2.3010    -0.2050 ha         1 1YR       0.145000
     35 H11         -2.0650     1.4220     1.9340 ha         1 1YR       0.134000
     36 H12         -3.7460    -0.1930     2.5280 ha         1 1YR       0.186000
     37 H14          3.7390     0.6440    -0.2630 h1         1 1YR       0.060700
     38 H15          4.3150     1.8190     0.9290 h1         1 1YR       0.060700
     39 H16          4.5110    -0.4370     1.8160 h1         1 1YR       0.075700
     40 H17          3.4170     0.5310     2.7790 h1         1 1YR       0.075700
     41 H18          1.7430    -3.6350     0.0760 hn         1 1YR       0.345500
     42 H19         -0.4390    -1.7360     3.1240 ha         1 1YR       0.224000
     43 H20          1.3440    -0.0480     3.1570 h4         1 1YR       0.211000
     44 BR1         -0.2670    -1.9300    -2.3420 br         1 1YR      -0.086100
     45 CL1          3.7660     4.8750    -2.9960 cl         1 1YR      -0.188000
@<TRIPOS>BOND
     1     1     2 1   
     2     1    17 2   
     3     1    29 1   
     4     2    28 3   
     5     3     4 ar  
     6     3     8 ar  
     7     3    30 1   
     8     4     5 ar  
     9     4    45 1   
    10     5     6 ar  
    11     5    31 1   
    12     6     7 ar  
    13     6    32 1   
    14     7     8 ar  
    15     7     9 1   
    16     8    10 1   
    17     9    11 1   
    18    10    18 1   
    19    11    12 ar  
    20    11    16 ar  
    21    12    13 ar  
    22    12    33 1   
    23    13    14 ar  
    24    13    44 1   
    25    14    15 ar  
    26    14    34 1   
    27    15    16 ar  
    28    15    17 1   
    29    16    35 1   
    30    17    36 1   
    31    18    19 1   
    32    18    37 1   
    33    18    38 1   
    34    19    20 1   
    35    19    39 1   
    36    19    40 1   
    37    20    21 1   
    38    20    25 1   
    39    21    22 1   
    40    21    26 2   
    41    22    23 1   
    42    22    41 1   
    43    23    24 1   
    44    23    27 2   
    45    24    25 2   
    46    24    42 1   
    47    25    43 1   
@<TRIPOS>SUBSTRUCTURE
     1 1YR         1 TEMP              0 ****  ****    0 ROOT
