@<TRIPOS>MOLECULE
1YR
   45    47     1     0     0
SMALL
No Charge or Current Charge


@<TRIPOS>ATOM
      1 C15         -3.6990    -2.3640     2.0960 ce         1 1YR      -0.098700
      2 C17         -4.6830    -2.7350     3.0620 cg         1 1YR       0.272700
      3 C00          2.9330     3.3680    -1.1030 ca         1 1YR      -0.187000
      4 C01          2.5320     4.3870    -1.9810 ca         1 1YR       0.159000
      5 C02          1.1900     4.7940    -2.0350 ca         1 1YR      -0.128000
      6 C03          0.2370     4.1750    -1.2090 ca         1 1YR      -0.067000
      7 C04          0.6280     3.1480    -0.3320 ca         1 1YR       0.055100
      8 C05          1.9830     2.7440    -0.2640 ca         1 1YR       0.139100
      9 O0A         -0.3360     2.5480     0.4490 os         1 1YR      -0.235200
     10 O0B          2.3390     1.7420     0.6210 os         1 1YR      -0.335100
     11 C0C         -0.7570     1.2460     0.2630 ca         1 1YR       0.141100
     12 C0D         -0.2480     0.4310    -0.7690 ca         1 1YR      -0.150000
     13 C0E         -0.7110    -0.8840    -0.9090 ca         1 1YR       0.006100
     14 C0F         -1.6930    -1.3890    -0.0420 ca         1 1YR      -0.097000
     15 C0G         -2.2130    -0.5830     0.9920 ca         1 1YR      -0.035800
     16 C0H         -1.7360     0.7360     1.1320 ca         1 1YR      -0.120000
     17 C0M         -3.2230    -1.0940     1.9400 cf         1 1YR      -0.118200
     18 C0O          3.5850     1.0290     0.5060 c3         1 1YR       0.135600
     19 C0P          3.6610    -0.0320     1.6240 c3         1 1YR       0.110000
     20 N0S          2.5210    -0.9850     1.6570 n          1 1YR      -0.306000
     21 C0V          2.6050    -2.1770     0.9050 c          1 1YR       0.615000
     22 N0W          1.5790    -3.0570     1.0550 ns         1 1YR      -0.462500
     23 C0X          0.4830    -2.9390     1.8460 c          1 1YR       0.593200
     24 C0Y          0.4390    -1.6880     2.5950 cc         1 1YR      -0.384200
     25 C0Z          1.4290    -0.7390     2.4850 cd         1 1YR       0.017600
     26 O10          3.5370    -2.4320     0.1590 o          1 1YR      -0.561000
     27 O12         -0.3700    -3.8050     1.9080 o          1 1YR      -0.535000
     28 N19         -5.4920    -2.9960     3.8610 n1         1 1YR      -0.451000
     29 H1          -3.3260    -3.1780     1.4790 ha         1 1YR       0.223000
     30 H3           3.9800     3.0860    -1.0820 ha         1 1YR       0.138000
     31 H4           0.8900     5.5860    -2.7170 ha         1 1YR       0.140000
     32 H5          -0.8050     4.4830    -1.2520 ha         1 1YR       0.139000
     33 H9           0.5040     0.8010    -1.4590 ha         1 1YR       0.141000
     34 H10         -2.0350    -2.4100    -0.1790 ha         1 1YR       0.145000
     35 H11         -2.1190     1.3740     1.9240 ha         1 1YR       0.134000
     36 H12         -3.6330    -0.3300     2.6050 ha         1 1YR       0.186000
     37 H14          3.6550     0.5310    -0.4700 h1         1 1YR       0.060700
     38 H15          4.4390     1.7090     0.6130 h1         1 1YR       0.060700
     39 H16          4.6000    -0.5890     1.5190 h1         1 1YR       0.075700
     40 H17          3.7160     0.4870     2.5900 h1         1 1YR       0.075700
     41 H18          1.6460    -3.9060     0.5180 hn         1 1YR       0.345500
     42 H19         -0.4260    -1.5500     3.2330 ha         1 1YR       0.224000
     43 H20          1.4480     0.2170     3.0060 h4         1 1YR       0.211000
     44 Br1          0.0100    -2.0010    -2.2820 br         1 1YR      -0.086100
     45 Cl1          3.7220     5.1620    -3.0180 cl         1 1YR      -0.188000
@<TRIPOS>BOND
     1     1     2 1   
     2     1    17 2   
     3     1    29 1   
     4     2    28 3   
     5     3     4 ar  
     6     3     8 ar  
     7     3    30 1   
     8     4     5 ar  
     9     4    45 1   
    10     5     6 ar  
    11     5    31 1   
    12     6     7 ar  
    13     6    32 1   
    14     7     8 ar  
    15     7     9 1   
    16     8    10 1   
    17     9    11 1   
    18    10    18 1   
    19    11    12 ar  
    20    11    16 ar  
    21    12    13 ar  
    22    12    33 1   
    23    13    14 ar  
    24    13    44 1   
    25    14    15 ar  
    26    14    34 1   
    27    15    16 ar  
    28    15    17 1   
    29    16    35 1   
    30    17    36 1   
    31    18    19 1   
    32    18    37 1   
    33    18    38 1   
    34    19    20 1   
    35    19    39 1   
    36    19    40 1   
    37    20    21 1   
    38    20    25 1   
    39    21    22 1   
    40    21    26 2   
    41    22    23 1   
    42    22    41 1   
    43    23    24 1   
    44    23    27 2   
    45    24    25 2   
    46    24    42 1   
    47    25    43 1   
@<TRIPOS>SUBSTRUCTURE
     1 1YR         1 TEMP              0 ****  ****    0 ROOT
