@<TRIPOS>MOLECULE
1YS
   70    72     1     0     0
SMALL
abcg2


@<TRIPOS>ATOM
      1 F1          -4.2300     3.2470    -2.2840 f          1 1YS      -0.097833
      2 C2          -4.5620     2.7890    -1.0790 c3         1 1YS       0.305500
      3 F3          -3.6450     3.2210    -0.2120 f          1 1YS      -0.097833
      4 F4          -5.7260     3.3390    -0.7360 f          1 1YS      -0.097833
      5 C5          -4.6090     1.2610    -1.0480 c3         1 1YS       0.023300
      6 O7          -4.9600     0.8970     0.2540 os         1 1YS      -0.334100
      7 C8          -4.2270    -0.0910     0.8720 ca         1 1YS       0.039100
      8 C9          -4.9590    -1.1640     1.3910 ca         1 1YS       0.268000
      9 C10         -4.2060    -2.1250     2.0620 ca         1 1YS       0.108000
     10 C11         -2.8380    -2.0610     2.2070 ca         1 1YS      -0.112000
     11 C13         -2.1350    -0.9840     1.6770 ca         1 1YS      -0.080300
     12 C14         -2.8540     0.0070     1.0170 ca         1 1YS      -0.108000
     13 C16         -0.6400    -0.8880     1.7940 c3         1 1YS      -0.020100
     14 C19          0.0920    -1.2300     0.4850 c6         1 1YS      -0.036700
     15 C21          1.6010    -1.0590     0.6460 c6         1 1YS       0.178300
     16 C23          2.3740    -1.3370    -0.6500 c6         1 1YS       0.153500
     17 C25          2.1780    -2.7690    -1.1320 c6         1 1YS      -0.066100
     18 S28          0.4460    -3.1090    -1.5520 s4         1 1YS       0.169400
     19 C29         -0.2370    -2.6560     0.0660 c6         1 1YS      -0.030100
     20 O32          0.0190    -2.0350    -2.5280 o          1 1YS      -0.502000
     21 N33          3.7650    -0.9950    -0.4080 n7         1 1YS      -0.895400
     22 C35          4.5620    -0.7140    -1.5890 c3         1 1YS       0.219100
     23 C38          5.9670    -0.3200    -1.2110 ca         1 1YS      -0.098300
     24 C39          6.1950     0.5990    -0.1930 ca         1 1YS      -0.089000
     25 C41          7.4810     0.9930     0.1800 ca         1 1YS      -0.066300
     26 C42          8.5540     0.4350    -0.5120 ca         1 1YS      -0.103000
     27 C44          8.3440    -0.4830    -1.5340 ca         1 1YS      -0.112000
     28 C46          7.0580    -0.8650    -1.8820 ca         1 1YS      -0.109000
     29 C48          7.6580     2.0010     1.3120 c3         1 1YS       0.000300
     30 C49          6.9530     3.3120     0.9400 c3         1 1YS      -0.082767
     31 C53          7.0370     1.4330     2.5960 c3         1 1YS      -0.082767
     32 C57          9.1290     2.3100     1.5910 c3         1 1YS      -0.082767
     33 O61          1.8830     0.2500     1.0670 oh         1 1YS      -0.660000
     34 F63         -4.8720    -3.1740     2.5830 f          1 1YS      -0.181000
     35 N64         -6.3190    -1.2950     1.2130 nv         1 1YS      -1.046000
     36 C67         -5.6300     0.6360    -2.0040 c3         1 1YS       0.305500
     37 F68         -5.3950     0.9690    -3.2730 f          1 1YS      -0.097833
     38 F69         -5.5570    -0.6920    -1.9100 f          1 1YS      -0.097833
     39 F70         -6.8810     0.9900    -1.7110 f          1 1YS      -0.097833
     40 H1          -3.6180     0.8940    -1.3430 h1         1 1YS       0.115700
     41 H2          -2.3230    -2.8530     2.7360 ha         1 1YS       0.132000
     42 H3          -2.3320     0.8750     0.6310 ha         1 1YS       0.134000
     43 H4          -0.3690     0.1260     2.0940 hc         1 1YS       0.061700
     44 H5          -0.2880    -1.5550     2.5870 hc         1 1YS       0.061700
     45 H6          -0.2550    -0.5490    -0.2990 hc         1 1YS       0.080700
     46 H7           1.9420    -1.7910     1.4010 h1         1 1YS       0.024700
     47 H8           2.0020    -0.6560    -1.4230 h1         1 1YS       0.092700
     48 H9           2.7530    -2.9790    -2.0360 h1         1 1YS       0.080700
     49 H10          2.4660    -3.5010    -0.3720 h1         1 1YS       0.080700
     50 H11          0.1450    -3.3910     0.7790 h1         1 1YS       0.082700
     51 H12         -1.3130    -2.8090    -0.0230 h1         1 1YS       0.082700
     52 H14          4.2130    -1.7170     0.1470 hn         1 1YS       0.422000
     53 H16          4.6080    -1.5530    -2.2960 h1         1 1YS       0.042700
     54 H17          4.0820     0.1100    -2.1260 h1         1 1YS       0.042700
     55 H18          5.3370     1.0130     0.3240 ha         1 1YS       0.120000
     56 H19          9.5710     0.7040    -0.2590 ha         1 1YS       0.114000
     57 H20          9.1920    -0.9060    -2.0560 ha         1 1YS       0.112000
     58 H21          6.9020    -1.5900    -2.6710 ha         1 1YS       0.109000
     59 H22          5.8870     3.1690     0.7610 hc         1 1YS       0.035922
     60 H23          7.0550     4.0390     1.7480 hc         1 1YS       0.035922
     61 H24          7.3860     3.7500     0.0390 hc         1 1YS       0.035922
     62 H25          7.5380     0.5120     2.8980 hc         1 1YS       0.035922
     63 H26          7.1340     2.1510     3.4130 hc         1 1YS       0.035922
     64 H27          5.9760     1.2130     2.4770 hc         1 1YS       0.035922
     65 H28          9.6320     2.7370     0.7210 hc         1 1YS       0.035922
     66 H29          9.2040     3.0370     2.4010 hc         1 1YS       0.035922
     67 H30          9.6830     1.4210     1.8990 hc         1 1YS       0.035922
     68 H31          2.8230     0.3710     0.8550 ho         1 1YS       0.473000
     69 H32         -6.8100    -0.4380     1.0160 hn         1 1YS       0.463000
     70 H33         -6.7960    -1.8310     1.9210 hn         1 1YS       0.463000
@<TRIPOS>BOND
     1     1     2 1   
     2     2     3 1   
     3     2     4 1   
     4     2     5 1   
     5     5     6 1   
     6     5    36 1   
     7     5    40 1   
     8     6     7 1   
     9     7     8 ar  
    10     7    12 ar  
    11     8     9 ar  
    12     8    35 1   
    13     9    10 ar  
    14     9    34 1   
    15    10    11 ar  
    16    10    41 1   
    17    11    12 ar  
    18    11    13 1   
    19    12    42 1   
    20    13    14 1   
    21    13    43 1   
    22    13    44 1   
    23    14    15 1   
    24    14    19 1   
    25    14    45 1   
    26    15    16 1   
    27    15    33 1   
    28    15    46 1   
    29    16    17 1   
    30    16    21 1   
    31    16    47 1   
    32    17    18 1   
    33    17    48 1   
    34    17    49 1   
    35    18    19 1   
    36    18    20 2   
    37    19    50 1   
    38    19    51 1   
    39    21    22 1   
    40    21    52 1   
    41    22    23 1   
    42    22    53 1   
    43    22    54 1   
    44    23    24 ar  
    45    23    28 ar  
    46    24    25 ar  
    47    24    55 1   
    48    25    26 ar  
    49    25    29 1   
    50    26    27 ar  
    51    26    56 1   
    52    27    28 ar  
    53    27    57 1   
    54    28    58 1   
    55    29    30 1   
    56    29    31 1   
    57    29    32 1   
    58    30    59 1   
    59    30    60 1   
    60    30    61 1   
    61    31    62 1   
    62    31    63 1   
    63    31    64 1   
    64    32    65 1   
    65    32    66 1   
    66    32    67 1   
    67    33    68 1   
    68    35    69 1   
    69    35    70 1   
    70    36    37 1   
    71    36    38 1   
    72    36    39 1   
@<TRIPOS>SUBSTRUCTURE
     1 1YS         1 TEMP              0 ****  ****    0 ROOT
