@<TRIPOS>MOLECULE
1YS
   70    72     1     0     0
SMALL
No Charge or Current Charge


@<TRIPOS>ATOM
      1 F1          -4.8660     3.9610    -1.3690 f          1 1YS      -0.097833
      2 C2          -5.4110     2.9650    -0.6330 c3         1 1YS       0.305500
      3 F3          -5.6420     3.4630     0.6040 f          1 1YS      -0.097833
      4 F4          -6.6110     2.6540    -1.1780 f          1 1YS      -0.097833
      5 C5          -4.4670     1.7270    -0.5560 c3         1 1YS       0.023300
      6 O7          -5.0940     0.7620     0.3380 os         1 1YS      -0.334100
      7 C8          -4.4250    -0.2920     0.9520 ca         1 1YS       0.039100
      8 C9          -5.1870    -1.3800     1.4520 ca         1 1YS       0.268000
      9 C10         -4.5190    -2.4560     2.0840 ca         1 1YS       0.108000
     10 C11         -3.1220    -2.4550     2.2180 ca         1 1YS      -0.112000
     11 C13         -2.3650    -1.3730     1.7330 ca         1 1YS      -0.080300
     12 C14         -3.0200    -0.2920     1.1130 ca         1 1YS      -0.108000
     13 C16         -0.8450    -1.3710     1.8690 c3         1 1YS      -0.020100
     14 C19         -0.0860    -1.4250     0.5040 c6         1 1YS      -0.036700
     15 C21          1.4600    -1.4510     0.6980 c6         1 1YS       0.178300
     16 C23          2.2430    -1.3620    -0.6430 c6         1 1YS       0.153500
     17 C25          2.0140    -2.6130    -1.5140 c6         1 1YS      -0.066100
     18 S28          0.2310    -2.8020    -2.0180 s4         1 1YS       0.169400
     19 C29         -0.5500    -2.6560    -0.3280 c6         1 1YS      -0.030100
     20 O32         -0.1450    -1.5590    -2.7930 o          1 1YS      -0.502000
     21 N33          3.6860    -1.1220    -0.3540 n7         1 1YS      -0.895400
     22 C35          4.5270    -0.6180    -1.4570 c3         1 1YS       0.219100
     23 C38          5.9510    -0.4020    -0.9680 ca         1 1YS      -0.098300
     24 C39          6.2850     0.7670    -0.2570 ca         1 1YS      -0.089000
     25 C41          7.6010     0.9990     0.2110 ca         1 1YS      -0.066300
     26 C42          8.5820     0.0120    -0.0580 ca         1 1YS      -0.103000
     27 C44          8.2520    -1.1570    -0.7650 ca         1 1YS      -0.112000
     28 C46          6.9420    -1.3660    -1.2190 ca         1 1YS      -0.109000
     29 C48          7.9150     2.3050     0.9900 c3         1 1YS       0.000300
     30 C49          7.5990     3.5290     0.0880 c3         1 1YS      -0.082767
     31 C53          7.0320     2.3650     2.2670 c3         1 1YS      -0.082767
     32 C57          9.4020     2.4090     1.4320 c3         1 1YS      -0.082767
     33 O61          1.9310    -0.3660     1.4980 oh         1 1YS      -0.660000
     34 F63         -5.2190    -3.5120     2.5680 f          1 1YS      -0.181000
     35 N64         -6.5680    -1.3820     1.3140 nv         1 1YS      -1.046000
     36 C67         -4.1730     1.0520    -1.9380 c3         1 1YS       0.305500
     37 F68         -3.6720     1.9410    -2.8260 f          1 1YS      -0.097833
     38 F69         -3.2630     0.0580    -1.8210 f          1 1YS      -0.097833
     39 F70         -5.2910     0.5140    -2.4800 f          1 1YS      -0.097833
     40 H1          -3.5230     2.0950    -0.1410 h1         1 1YS       0.115700
     41 H2          -2.6320    -3.2970     2.7010 ha         1 1YS       0.132000
     42 H3          -2.4190     0.5410     0.7640 ha         1 1YS       0.134000
     43 H4          -0.5500    -0.4710     2.4220 hc         1 1YS       0.061700
     44 H5          -0.5240    -2.2130     2.4960 hc         1 1YS       0.061700
     45 H6          -0.3530    -0.5120    -0.0450 hc         1 1YS       0.080700
     46 H7           1.7310    -2.3960     1.1920 h1         1 1YS       0.024700
     47 H8           1.8520    -0.4910    -1.1940 h1         1 1YS       0.092700
     48 H9           2.5850    -2.5510    -2.4500 h1         1 1YS       0.080700
     49 H10          2.2970    -3.5300    -0.9810 h1         1 1YS       0.080700
     50 H11         -0.3200    -3.5920     0.1990 h1         1 1YS       0.082700
     51 H12         -1.6330    -2.6180    -0.5100 h1         1 1YS       0.082700
     52 H14          4.1150    -1.9900    -0.0090 hn         1 1YS       0.422000
     53 H16          4.5370    -1.3280    -2.2950 h1         1 1YS       0.042700
     54 H17          4.1300     0.3330    -1.8380 h1         1 1YS       0.042700
     55 H18          5.5020     1.4970    -0.0690 ha         1 1YS       0.120000
     56 H19          9.6090     0.1260     0.2710 ha         1 1YS       0.114000
     57 H20          9.0180    -1.9050    -0.9610 ha         1 1YS       0.112000
     58 H21          6.6980    -2.2750    -1.7640 ha         1 1YS       0.109000
     59 H22          6.5380     3.5700    -0.1840 hc         1 1YS       0.035922
     60 H23          7.8440     4.4680     0.6000 hc         1 1YS       0.035922
     61 H24          8.1840     3.4870    -0.8390 hc         1 1YS       0.035922
     62 H25          7.2110     1.4880     2.9010 hc         1 1YS       0.035922
     63 H26          7.2560     3.2620     2.8570 hc         1 1YS       0.035922
     64 H27          5.9650     2.3910     2.0210 hc         1 1YS       0.035922
     65 H28         10.0740     2.3980     0.5660 hc         1 1YS       0.035922
     66 H29          9.5840     3.3430     1.9780 hc         1 1YS       0.035922
     67 H30          9.6760     1.5810     2.0980 hc         1 1YS       0.035922
     68 H31          2.8340    -0.2310     1.1080 ho         1 1YS       0.473000
     69 H32         -7.0260    -0.5360     0.9810 hn         1 1YS       0.463000
     70 H33         -7.1300    -2.0670     1.8160 hn         1 1YS       0.463000
@<TRIPOS>BOND
     1     1     2 1   
     2     2     3 1   
     3     2     4 1   
     4     2     5 1   
     5     5     6 1   
     6     5    36 1   
     7     5    40 1   
     8     6     7 1   
     9     7     8 ar  
    10     7    12 ar  
    11     8     9 ar  
    12     8    35 1   
    13     9    10 ar  
    14     9    34 1   
    15    10    11 ar  
    16    10    41 1   
    17    11    12 ar  
    18    11    13 1   
    19    12    42 1   
    20    13    14 1   
    21    13    43 1   
    22    13    44 1   
    23    14    15 1   
    24    14    19 1   
    25    14    45 1   
    26    15    16 1   
    27    15    33 1   
    28    15    46 1   
    29    16    17 1   
    30    16    21 1   
    31    16    47 1   
    32    17    18 1   
    33    17    48 1   
    34    17    49 1   
    35    18    19 1   
    36    18    20 2   
    37    19    50 1   
    38    19    51 1   
    39    21    22 1   
    40    21    52 1   
    41    22    23 1   
    42    22    53 1   
    43    22    54 1   
    44    23    24 ar  
    45    23    28 ar  
    46    24    25 ar  
    47    24    55 1   
    48    25    26 ar  
    49    25    29 1   
    50    26    27 ar  
    51    26    56 1   
    52    27    28 ar  
    53    27    57 1   
    54    28    58 1   
    55    29    30 1   
    56    29    31 1   
    57    29    32 1   
    58    30    59 1   
    59    30    60 1   
    60    30    61 1   
    61    31    62 1   
    62    31    63 1   
    63    31    64 1   
    64    32    65 1   
    65    32    66 1   
    66    32    67 1   
    67    33    68 1   
    68    35    69 1   
    69    35    70 1   
    70    36    37 1   
    71    36    38 1   
    72    36    39 1   
@<TRIPOS>SUBSTRUCTURE
     1 1YS         1 TEMP              0 ****  ****    0 ROOT
