@<TRIPOS>MOLECULE
1YT
   74    76     1     0     0
SMALL
No Charge or Current Charge


@<TRIPOS>ATOM
      1 F1          -6.6250     3.1010    -1.9240 f          1 1YT      -0.107000
      2 C2          -5.3020     2.9620    -2.1780 c3         1 1YT       0.312000
      3 F3          -5.1800     2.2820    -3.3420 f          1 1YT      -0.107000
      4 F4          -4.7850     4.1980    -2.3760 f          1 1YT      -0.107000
      5 C5          -4.5520     2.2200    -1.0330 c3         1 1YT       0.107300
      6 O7          -5.2180     0.9520    -0.7850 os         1 1YT      -0.339100
      7 C8          -4.6660    -0.0850    -0.0390 ca         1 1YT       0.039100
      8 C9          -5.5090    -1.1570     0.3570 ca         1 1YT       0.257000
      9 C10         -4.9620    -2.2200     1.1170 ca         1 1YT       0.103000
     10 C11         -3.6040    -2.2260     1.4690 ca         1 1YT      -0.113000
     11 C13         -2.7630    -1.1730     1.0660 ca         1 1YT      -0.088300
     12 C14         -3.2950    -0.1090     0.3130 ca         1 1YT      -0.102000
     13 C16         -1.2820    -1.1850     1.4340 c3         1 1YT      -0.016100
     14 C19         -0.3340    -1.4500     0.2210 c6         1 1YT      -0.039700
     15 C21          1.1680    -1.4370     0.6410 c6         1 1YT       0.179300
     16 C23          2.1380    -1.5580    -0.5690 c6         1 1YT       0.152500
     17 C25          2.0140    -2.9320    -1.2580 c6         1 1YT      -0.066100
     18 S28          0.3190    -3.2070    -1.9790 s4         1 1YT       0.165400
     19 C29         -0.6940    -2.8000    -0.4640 c6         1 1YT      -0.028100
     20 O32          0.0800    -2.1040    -2.9850 o          1 1YT      -0.497000
     21 N33          3.5290    -1.2680    -0.1150 n7         1 1YT      -0.897400
     22 C35          4.5280    -0.9410    -1.1480 c3         1 1YT       0.218100
     23 C38          5.8710    -0.6450    -0.4970 ca         1 1YT      -0.096300
     24 C39          6.1200     0.6220     0.0630 ca         1 1YT      -0.088000
     25 C41          7.3590     0.9310     0.6750 ca         1 1YT      -0.066300
     26 C42          8.3510    -0.0820     0.7080 ca         1 1YT      -0.103000
     27 C44          8.1050    -1.3480     0.1510 ca         1 1YT      -0.112000
     28 C46          6.8700    -1.6320    -0.4490 ca         1 1YT      -0.109000
     29 C48          7.5820     2.3450     1.2790 c3         1 1YT       0.000300
     30 C49          7.4210     3.4110     0.1610 c3         1 1YT      -0.082767
     31 C53          6.5260     2.5990     2.3890 c3         1 1YT      -0.082767
     32 C57          8.9920     2.5230     1.9100 c3         1 1YT      -0.082767
     33 O61          1.5390    -0.2380     1.3190 oh         1 1YT      -0.660000
     34 F63         -5.7440    -3.2520     1.5190 f          1 1YT      -0.184000
     35 N64         -6.8520    -1.1500     0.0080 nv         1 1YT      -1.062000
     36 C67         -4.4490     3.0250     0.2990 c3         1 1YT       0.132600
     37 O70         -5.7650     3.3550     0.7870 os         1 1YT      -0.441000
     38 C71         -5.7780     4.0930     2.0200 c3         1 1YT       0.142900
     39 H1          -3.5350     2.0440    -1.4040 h1         1 1YT       0.077700
     40 H2          -3.2080    -3.0550     2.0510 ha         1 1YT       0.130000
     41 H3          -2.6250     0.6880     0.0080 ha         1 1YT       0.135000
     42 H4          -1.0350    -0.2210     1.8960 hc         1 1YT       0.059700
     43 H5          -1.0950    -1.9340     2.2140 hc         1 1YT       0.059700
     44 H6          -0.5030    -0.6360    -0.4960 hc         1 1YT       0.083700
     45 H7           1.3470    -2.2920     1.3110 h1         1 1YT       0.024700
     46 H8           1.8460    -0.7870    -1.3010 h1         1 1YT       0.093700
     47 H9           2.7150    -3.0150    -2.0980 h1         1 1YT       0.079700
     48 H10          2.2000    -3.7520    -0.5520 h1         1 1YT       0.079700
     49 H11         -0.5580    -3.6390     0.2320 h1         1 1YT       0.083200
     50 H12         -1.7390    -2.7970    -0.8040 h1         1 1YT       0.083200
     51 H14          3.8870    -2.0700     0.4210 hn         1 1YT       0.423000
     52 H16          4.6460    -1.7740    -1.8540 h1         1 1YT       0.042700
     53 H17          4.2090    -0.0640    -1.7280 h1         1 1YT       0.042700
     54 H18          5.3330     1.3690     0.0200 ha         1 1YT       0.120000
     55 H19          9.3220     0.0880     1.1610 ha         1 1YT       0.113000
     56 H20          8.8770    -2.1140     0.1870 ha         1 1YT       0.112000
     57 H21          6.6910    -2.6160    -0.8760 ha         1 1YT       0.109000
     58 H22          6.4120     3.4030    -0.2640 hc         1 1YT       0.035700
     59 H23          7.6070     4.4190     0.5510 hc         1 1YT       0.035700
     60 H24          8.1330     3.2270    -0.6530 hc         1 1YT       0.035700
     61 H25          6.5970     1.8340     3.1720 hc         1 1YT       0.035700
     62 H26          6.6790     3.5790     2.8590 hc         1 1YT       0.035700
     63 H27          5.5060     2.5810     1.9900 hc         1 1YT       0.035700
     64 H28          9.7810     2.3800     1.1620 hc         1 1YT       0.035700
     65 H29          9.1100     3.5320     2.3240 hc         1 1YT       0.035700
     66 H30          9.1520     1.8110     2.7290 hc         1 1YT       0.035700
     67 H31          2.4910    -0.1640     1.0480 ho         1 1YT       0.473000
     68 H32         -7.2420    -0.2990    -0.3940 hn         1 1YT       0.467500
     69 H33         -7.4940    -1.8070     0.4470 hn         1 1YT       0.467500
     70 H34         -3.9010     2.4370     1.0460 h1         1 1YT       0.044700
     71 H35         -3.8710     3.9410     0.1160 h1         1 1YT       0.044700
     72 H36         -5.2950     3.5210     2.8220 h1         1 1YT       0.034033
     73 H37         -5.2510     5.0490     1.9080 h1         1 1YT       0.034033
     74 H38         -6.8100     4.3060     2.3260 h1         1 1YT       0.034033
@<TRIPOS>BOND
     1     1     2 1   
     2     2     3 1   
     3     2     4 1   
     4     2     5 1   
     5     5     6 1   
     6     5    36 1   
     7     5    39 1   
     8     6     7 1   
     9     7     8 ar  
    10     7    12 ar  
    11     8     9 ar  
    12     8    35 1   
    13     9    10 ar  
    14     9    34 1   
    15    10    11 ar  
    16    10    40 1   
    17    11    12 ar  
    18    11    13 1   
    19    12    41 1   
    20    13    14 1   
    21    13    42 1   
    22    13    43 1   
    23    14    15 1   
    24    14    19 1   
    25    14    44 1   
    26    15    16 1   
    27    15    33 1   
    28    15    45 1   
    29    16    17 1   
    30    16    21 1   
    31    16    46 1   
    32    17    18 1   
    33    17    47 1   
    34    17    48 1   
    35    18    19 1   
    36    18    20 2   
    37    19    49 1   
    38    19    50 1   
    39    21    22 1   
    40    21    51 1   
    41    22    23 1   
    42    22    52 1   
    43    22    53 1   
    44    23    24 ar  
    45    23    28 ar  
    46    24    25 ar  
    47    24    54 1   
    48    25    26 ar  
    49    25    29 1   
    50    26    27 ar  
    51    26    55 1   
    52    27    28 ar  
    53    27    56 1   
    54    28    57 1   
    55    29    30 1   
    56    29    31 1   
    57    29    32 1   
    58    30    58 1   
    59    30    59 1   
    60    30    60 1   
    61    31    61 1   
    62    31    62 1   
    63    31    63 1   
    64    32    64 1   
    65    32    65 1   
    66    32    66 1   
    67    33    67 1   
    68    35    68 1   
    69    35    69 1   
    70    36    37 1   
    71    36    70 1   
    72    36    71 1   
    73    37    38 1   
    74    38    72 1   
    75    38    73 1   
    76    38    74 1   
@<TRIPOS>SUBSTRUCTURE
     1 1YT         1 TEMP              0 ****  ****    0 ROOT
