@<TRIPOS>MOLECULE
1YT
   74    76     1     0     0
SMALL
bcc


@<TRIPOS>ATOM
      1 F1          -5.6660     2.3530    -2.8960 f          1 1YT      -0.228300
      2 C2          -4.7180     2.8830    -2.1220 c3         1 1YT       0.675900
      3 F3          -3.5410     2.5610    -2.6740 f          1 1YT      -0.228300
      4 F4          -4.8380     4.2130    -2.1940 f          1 1YT      -0.228300
      5 C5          -4.7850     2.4060    -0.6790 c3         1 1YT       0.084100
      6 O7          -4.7650     0.9960    -0.7590 os         1 1YT      -0.315900
      7 C8          -4.1970     0.3270     0.2920 ca         1 1YT       0.039100
      8 C9          -5.0540    -0.3970     1.1320 ca         1 1YT       0.118600
      9 C10         -4.4260    -1.1240     2.1400 ca         1 1YT       0.067900
     10 C11         -3.0630    -1.1410     2.3350 ca         1 1YT      -0.131000
     11 C13         -2.2330    -0.3980     1.5000 ca         1 1YT      -0.088300
     12 C14         -2.8240     0.3350     0.4760 ca         1 1YT      -0.120000
     13 C16         -0.7400    -0.4130     1.6830 c3         1 1YT      -0.016100
     14 C19          0.0230    -0.9590     0.4650 c6         1 1YT      -0.039700
     15 C21          1.5260    -0.9990     0.7320 c6         1 1YT       0.156100
     16 C23          2.3220    -1.4510    -0.5010 c6         1 1YT       0.152500
     17 C25          1.9640    -2.8740    -0.9110 c6         1 1YT      -0.066100
     18 S28          0.2290    -3.0020    -1.4270 s4         1 1YT       0.138600
     19 C29         -0.4860    -2.3480     0.1060 c6         1 1YT      -0.028100
     20 O32          0.0220    -1.9450    -2.4900 o          1 1YT      -0.470200
     21 N33          3.7330    -1.2610    -0.2160 n7         1 1YT      -0.842200
     22 C35          4.5910    -1.1260    -1.3810 c3         1 1YT       0.218100
     23 C38          6.0030    -0.7760    -0.9860 ca         1 1YT      -0.096300
     24 C39          6.2470     0.2420    -0.0710 ca         1 1YT      -0.106000
     25 C41          7.5390     0.6060     0.3100 ca         1 1YT      -0.066300
     26 C42          8.6020    -0.0880    -0.2650 ca         1 1YT      -0.121000
     27 C44          8.3750    -1.1090    -1.1790 ca         1 1YT      -0.130000
     28 C46          7.0820    -1.4580    -1.5370 ca         1 1YT      -0.127000
     29 C48          7.7330     1.7220     1.3330 c3         1 1YT       0.000300
     30 C49          7.1050     3.0170     0.8000 c3         1 1YT      -0.082767
     31 C53          7.0480     1.3240     2.6480 c3         1 1YT      -0.082767
     32 C57          9.2090     1.9930     1.6250 c3         1 1YT      -0.082767
     33 O61          1.9730     0.2730     1.1180 oh         1 1YT      -0.597800
     34 F63         -5.2140    -1.8470     2.9620 f          1 1YT      -0.148900
     35 N64         -6.4250    -0.3550     1.0070 nv         1 1YT      -0.813200
     36 C67         -5.9840     2.9190     0.0970 c3         1 1YT       0.109400
     37 O70         -7.1680     2.4650    -0.4900 os         1 1YT      -0.394600
     38 C71         -8.3020     2.7600     0.2890 c3         1 1YT       0.119700
     39 H1          -3.8890     2.7900    -0.1760 h1         1 1YT       0.077700
     40 H2          -2.6490    -1.7340     3.1410 ha         1 1YT       0.148000
     41 H3          -2.2090     0.9050    -0.2100 ha         1 1YT       0.153000
     42 H4          -0.3890     0.6000     1.8880 hc         1 1YT       0.059700
     43 H5          -0.4910    -1.0140     2.5630 hc         1 1YT       0.059700
     44 H6          -0.1580    -0.2940    -0.3870 hc         1 1YT       0.083700
     45 H7           1.7040    -1.7370     1.5360 h1         1 1YT       0.024700
     46 H8           2.0730    -0.7800    -1.3300 h1         1 1YT       0.093700
     47 H9           2.5540    -3.2120    -1.7650 h1         1 1YT       0.079700
     48 H10          2.1100    -3.5900    -0.0980 h1         1 1YT       0.079700
     49 H11         -0.2730    -3.0810     0.8900 h1         1 1YT       0.083200
     50 H12         -1.5640    -2.3490    -0.0600 h1         1 1YT       0.083200
     51 H14          4.0820    -1.9960     0.3890 hn         1 1YT       0.367800
     52 H16          4.6100    -2.0240    -2.0130 h1         1 1YT       0.042700
     53 H17          4.1760    -0.3270    -2.0020 h1         1 1YT       0.042700
     54 H18          5.3960     0.7600     0.3540 ha         1 1YT       0.138000
     55 H19          9.6230     0.1560    -0.0040 ha         1 1YT       0.131000
     56 H20          9.2160    -1.6410    -1.6070 ha         1 1YT       0.130000
     57 H21          6.9130    -2.2630    -2.2430 ha         1 1YT       0.127000
     58 H22          6.0400     2.9020     0.5920 hc         1 1YT       0.035700
     59 H23          7.2130     3.8190     1.5320 hc         1 1YT       0.035700
     60 H24          7.5930     3.3360    -0.1230 hc         1 1YT       0.035700
     61 H25          7.4900     0.4150     3.0620 hc         1 1YT       0.035700
     62 H26          7.1590     2.1190     3.3880 hc         1 1YT       0.035700
     63 H27          5.9800     1.1450     2.5170 hc         1 1YT       0.035700
     64 H28          9.7510     2.3130     0.7330 hc         1 1YT       0.035700
     65 H29          9.2960     2.7920     2.3630 hc         1 1YT       0.035700
     66 H30          9.7160     1.1160     2.0320 hc         1 1YT       0.035700
     67 H31          2.9250     0.2550     0.9300 ho         1 1YT       0.434000
     68 H32         -6.7620    -0.0060     0.1240 hn         1 1YT       0.412300
     69 H33         -6.9200    -1.1830     1.2970 hn         1 1YT       0.412300
     70 H34         -5.8870     2.5620     1.1320 h1         1 1YT       0.044700
     71 H35         -5.9430     4.0150     0.1490 h1         1 1YT       0.044700
     72 H36         -8.2300     2.3190     1.2890 h1         1 1YT       0.034033
     73 H37         -8.4510     3.8400     0.4020 h1         1 1YT       0.034033
     74 H38         -9.1710     2.3410    -0.2150 h1         1 1YT       0.034033
@<TRIPOS>BOND
     1     1     2 1   
     2     2     3 1   
     3     2     4 1   
     4     2     5 1   
     5     5     6 1   
     6     5    36 1   
     7     5    39 1   
     8     6     7 1   
     9     7     8 ar  
    10     7    12 ar  
    11     8     9 ar  
    12     8    35 1   
    13     9    10 ar  
    14     9    34 1   
    15    10    11 ar  
    16    10    40 1   
    17    11    12 ar  
    18    11    13 1   
    19    12    41 1   
    20    13    14 1   
    21    13    42 1   
    22    13    43 1   
    23    14    15 1   
    24    14    19 1   
    25    14    44 1   
    26    15    16 1   
    27    15    33 1   
    28    15    45 1   
    29    16    17 1   
    30    16    21 1   
    31    16    46 1   
    32    17    18 1   
    33    17    47 1   
    34    17    48 1   
    35    18    19 1   
    36    18    20 2   
    37    19    49 1   
    38    19    50 1   
    39    21    22 1   
    40    21    51 1   
    41    22    23 1   
    42    22    52 1   
    43    22    53 1   
    44    23    24 ar  
    45    23    28 ar  
    46    24    25 ar  
    47    24    54 1   
    48    25    26 ar  
    49    25    29 1   
    50    26    27 ar  
    51    26    55 1   
    52    27    28 ar  
    53    27    56 1   
    54    28    57 1   
    55    29    30 1   
    56    29    31 1   
    57    29    32 1   
    58    30    58 1   
    59    30    59 1   
    60    30    60 1   
    61    31    61 1   
    62    31    62 1   
    63    31    63 1   
    64    32    64 1   
    65    32    65 1   
    66    32    66 1   
    67    33    67 1   
    68    35    68 1   
    69    35    69 1   
    70    36    37 1   
    71    36    70 1   
    72    36    71 1   
    73    37    38 1   
    74    38    72 1   
    75    38    73 1   
    76    38    74 1   
@<TRIPOS>SUBSTRUCTURE
     1 1YT         1 TEMP              0 ****  ****    0 ROOT
