@<TRIPOS>MOLECULE
1YU
   70    72     1     0     0
SMALL
No Charge or Current Charge


@<TRIPOS>ATOM
      1 F1          -7.1510     1.9950    -1.1320 f          1 1YU      -0.097333
      2 C2          -6.0920     2.4420    -0.4180 c3         1 1YU       0.304500
      3 F3          -5.7080     3.6290    -0.9420 f          1 1YU      -0.097333
      4 F4          -6.5230     2.6840     0.8430 f          1 1YU      -0.097333
      5 C5          -4.9200     1.4150    -0.4070 c3         1 1YU       0.025300
      6 O7          -5.4020     0.2200     0.2750 os         1 1YU      -0.332100
      7 C8          -4.5780    -0.7680     0.8050 ca         1 1YU       0.033100
      8 C9          -5.1360    -2.0450     1.0710 ca         1 1YU       0.271000
      9 C10         -4.3090    -3.0590     1.6120 ca         1 1YU       0.110000
     10 C11         -2.9540    -2.8120     1.8810 ca         1 1YU      -0.104000
     11 C13         -2.4010    -1.5440     1.6280 ca         1 1YU      -0.082300
     12 C14         -3.2180    -0.5240     1.1050 ca         1 1YU      -0.114000
     13 C16         -0.9230    -1.2760     1.9040 c3         1 1YU      -0.019100
     14 C19         -0.0980    -0.9100     0.6280 c6         1 1YU      -0.027700
     15 C21          1.4120    -0.6830     0.9550 c6         1 1YU       0.175300
     16 C23          2.2360    -0.1940    -0.2740 c6         1 1YU       0.163500
     17 C25          2.2890    -1.2670    -1.3800 c6         1 1YU      -0.077100
     18 S28          0.5950    -1.6060    -2.0670 s4         1 1YU       0.174400
     19 C29         -0.2550    -2.0110    -0.4600 c6         1 1YU      -0.041100
     20 O32          0.6830    -2.8860    -2.8660 o          1 1YU      -0.497000
     21 N33          3.5900     0.2280     0.1790 n7         1 1YU      -0.895400
     22 C35          4.3770     1.0810    -0.7300 c3         1 1YU       0.220100
     23 C38          5.7160     1.4210    -0.0930 ca         1 1YU      -0.099300
     24 C39          6.8540     0.6400    -0.3720 ca         1 1YU      -0.101000
     25 C41          8.1130     0.9340     0.2060 ca         1 1YU      -0.064300
     26 C42          8.1960     2.0460     1.0810 ca         1 1YU      -0.101000
     27 C44          7.0620     2.8260     1.3630 ca         1 1YU      -0.114000
     28 C46          5.8250     2.5160     0.7790 ca         1 1YU      -0.089000
     29 C48          9.3370     0.0410    -0.1350 c3         1 1YU       0.000300
     30 C49         10.6420     0.4960     0.5780 c3         1 1YU      -0.082767
     31 C53          9.0420    -1.4210     0.2980 c3         1 1YU      -0.082767
     32 C57          9.5920     0.0830    -1.6660 c3         1 1YU      -0.082767
     33 O61          1.6110     0.2950     1.9760 oh         1 1YU      -0.662000
     34 F63         -4.8120    -4.2910     1.8740 f          1 1YU      -0.178000
     35 N64         -6.4750    -2.2890     0.7970 nv         1 1YU      -1.046000
     36 C67         -4.3840     1.0320    -1.8280 c3         1 1YU       0.304500
     37 F68         -5.3150     0.3650    -2.5510 f          1 1YU      -0.097333
     38 F69         -4.0240     2.1280    -2.5340 f          1 1YU      -0.097333
     39 F70         -3.2900     0.2400    -1.7500 f          1 1YU      -0.097333
     40 H1          -4.1090     1.8900     0.1550 h1         1 1YU       0.105700
     41 H2          -2.3380    -3.6120     2.2870 ha         1 1YU       0.137000
     42 H3          -2.7770     0.4530     0.9380 ha         1 1YU       0.129000
     43 H4          -0.8510    -0.4630     2.6370 hc         1 1YU       0.064700
     44 H5          -0.4690    -2.1470     2.3920 hc         1 1YU       0.064700
     45 H6          -0.5150     0.0280     0.2380 hc         1 1YU       0.054700
     46 H7           1.8380    -1.6400     1.2920 h1         1 1YU       0.034700
     47 H8           1.7240     0.6900    -0.6850 h1         1 1YU       0.065700
     48 H9           2.9030    -0.9400    -2.2280 h1         1 1YU       0.086200
     49 H10          2.6800    -2.2190    -0.9940 h1         1 1YU       0.086200
     50 H11          0.1680    -2.9640    -0.1130 h1         1 1YU       0.089200
     51 H12         -1.3110    -2.1700    -0.7160 h1         1 1YU       0.089200
     52 H14          4.1540    -0.6050     0.3910 hn         1 1YU       0.428000
     53 H16          4.5540     0.5710    -1.6870 h1         1 1YU       0.039200
     54 H17          3.8350     2.0110    -0.9500 h1         1 1YU       0.039200
     55 H18          6.7500    -0.2050    -1.0470 ha         1 1YU       0.108000
     56 H19          9.1290     2.3270     1.5570 ha         1 1YU       0.114000
     57 H20          7.1430     3.6750     2.0380 ha         1 1YU       0.114000
     58 H21          4.9510     3.1240     1.0060 ha         1 1YU       0.118000
     59 H22         10.5300     0.4600     1.6690 hc         1 1YU       0.035589
     60 H23         11.4810    -0.1580     0.3130 hc         1 1YU       0.035589
     61 H24         10.9160     1.5170     0.2880 hc         1 1YU       0.035589
     62 H25          8.1850    -1.8390    -0.2420 hc         1 1YU       0.035589
     63 H26          9.9040    -2.0700     0.1010 hc         1 1YU       0.035589
     64 H27          8.8210    -1.4680     1.3710 hc         1 1YU       0.035589
     65 H28          9.7650     1.1130    -2.0010 hc         1 1YU       0.035589
     66 H29         10.4740    -0.5130    -1.9340 hc         1 1YU       0.035589
     67 H30          8.7420    -0.3170    -2.2300 hc         1 1YU       0.035589
     68 H31          2.4900     0.6670     1.7070 ho         1 1YU       0.476000
     69 H32         -7.0690    -1.5040     0.5400 hn         1 1YU       0.464500
     70 H33         -6.9200    -3.1370     1.1420 hn         1 1YU       0.464500
@<TRIPOS>BOND
     1     1     2 1   
     2     2     3 1   
     3     2     4 1   
     4     2     5 1   
     5     5     6 1   
     6     5    36 1   
     7     5    40 1   
     8     6     7 1   
     9     7     8 ar  
    10     7    12 ar  
    11     8     9 ar  
    12     8    35 1   
    13     9    10 ar  
    14     9    34 1   
    15    10    11 ar  
    16    10    41 1   
    17    11    12 ar  
    18    11    13 1   
    19    12    42 1   
    20    13    14 1   
    21    13    43 1   
    22    13    44 1   
    23    14    15 1   
    24    14    19 1   
    25    14    45 1   
    26    15    16 1   
    27    15    33 1   
    28    15    46 1   
    29    16    17 1   
    30    16    21 1   
    31    16    47 1   
    32    17    18 1   
    33    17    48 1   
    34    17    49 1   
    35    18    19 1   
    36    18    20 2   
    37    19    50 1   
    38    19    51 1   
    39    21    22 1   
    40    21    52 1   
    41    22    23 1   
    42    22    53 1   
    43    22    54 1   
    44    23    24 ar  
    45    23    28 ar  
    46    24    25 ar  
    47    24    55 1   
    48    25    26 ar  
    49    25    29 1   
    50    26    27 ar  
    51    26    56 1   
    52    27    28 ar  
    53    27    57 1   
    54    28    58 1   
    55    29    30 1   
    56    29    31 1   
    57    29    32 1   
    58    30    59 1   
    59    30    60 1   
    60    30    61 1   
    61    31    62 1   
    62    31    63 1   
    63    31    64 1   
    64    32    65 1   
    65    32    66 1   
    66    32    67 1   
    67    33    68 1   
    68    35    69 1   
    69    35    70 1   
    70    36    37 1   
    71    36    38 1   
    72    36    39 1   
@<TRIPOS>SUBSTRUCTURE
     1 1YU         1 TEMP              0 ****  ****    0 ROOT
