@<TRIPOS>MOLECULE
1YU
   70    72     1     0     0
SMALL
abcg2


@<TRIPOS>ATOM
      1 F1          -6.2230     2.9750    -0.2180 f          1 1YU      -0.097333
      2 C2          -5.0020     2.6160    -0.6120 c3         1 1YU       0.304500
      3 F3          -4.6940     3.3290    -1.6940 f          1 1YU      -0.097333
      4 F4          -4.1520     2.9600     0.3560 f          1 1YU      -0.097333
      5 C5          -4.8960     1.1130    -0.8720 c3         1 1YU       0.025300
      6 O7          -5.2820     0.4790     0.3120 os         1 1YU      -0.332100
      7 C8          -4.4960    -0.5460     0.7860 ca         1 1YU       0.033100
      8 C9          -5.1480    -1.7640     1.0120 ca         1 1YU       0.271000
      9 C10         -4.3460    -2.7740     1.5380 ca         1 1YU       0.110000
     10 C11         -3.0050    -2.6220     1.8120 ca         1 1YU      -0.104000
     11 C13         -2.3850    -1.3990     1.5820 ca         1 1YU      -0.082300
     12 C14         -3.1560    -0.3580     1.0730 ca         1 1YU      -0.114000
     13 C16         -0.9250    -1.2010     1.8790 c3         1 1YU      -0.019100
     14 C19         -0.0720    -0.9560     0.6240 c6         1 1YU      -0.027700
     15 C21          1.3910    -0.7310     1.0010 c6         1 1YU       0.175300
     16 C23          2.2760    -0.4410    -0.2190 c6         1 1YU       0.163500
     17 C25          2.2720    -1.5960    -1.2160 c6         1 1YU      -0.077100
     18 S28          0.6180    -1.8220    -1.9200 s4         1 1YU       0.174400
     19 C29         -0.2080    -2.1320    -0.3380 c6         1 1YU      -0.041100
     20 O32          0.6240    -3.1270    -2.6820 o          1 1YU      -0.497000
     21 N33          3.5950    -0.0990     0.2770 n7         1 1YU      -0.895400
     22 C35          4.4490     0.6360    -0.6430 c3         1 1YU       0.220100
     23 C38          5.7070     1.0730     0.0570 ca         1 1YU      -0.099300
     24 C39          6.9460     0.5980    -0.3470 ca         1 1YU      -0.101000
     25 C41          8.1330     0.9680     0.2950 ca         1 1YU      -0.064300
     26 C42          8.0340     1.8430     1.3710 ca         1 1YU      -0.101000
     27 C44          6.7970     2.3280     1.7890 ca         1 1YU      -0.114000
     28 C46          5.6370     1.9450     1.1430 ca         1 1YU      -0.089000
     29 C48          9.4640     0.4010    -0.1910 c3         1 1YU       0.000300
     30 C49         10.6460     0.9050     0.6360 c3         1 1YU      -0.082767
     31 C53          9.4260    -1.1300    -0.0960 c3         1 1YU      -0.082767
     32 C57          9.6900     0.8150    -1.6520 c3         1 1YU      -0.082767
     33 O61          1.4850     0.3440     1.8960 oh         1 1YU      -0.662000
     34 F63         -4.9330    -3.9640     1.7760 f          1 1YU      -0.178000
     35 N64         -6.4710    -1.9720     0.6920 nv         1 1YU      -1.046000
     36 C67         -5.7910     0.5990    -2.0030 c3         1 1YU       0.304500
     37 F68         -7.0850     0.7900    -1.7520 f          1 1YU      -0.097333
     38 F69         -5.5080     1.1840    -3.1670 f          1 1YU      -0.097333
     39 F70         -5.6000    -0.7130    -2.1500 f          1 1YU      -0.097333
     40 H1          -3.8570     0.8980    -1.1530 h1         1 1YU       0.105700
     41 H2          -2.4500    -3.4590     2.2150 ha         1 1YU       0.137000
     42 H3          -2.7080     0.6170     0.9150 ha         1 1YU       0.129000
     43 H4          -0.8040    -0.3520     2.5540 hc         1 1YU       0.064700
     44 H5          -0.5380    -2.0780     2.4050 hc         1 1YU       0.064700
     45 H6          -0.4380    -0.0480     0.1270 hc         1 1YU       0.054700
     46 H7           1.7620    -1.6630     1.4670 h1         1 1YU       0.034700
     47 H8           1.8810     0.4560    -0.7140 h1         1 1YU       0.065700
     48 H9           2.9380    -1.4000    -2.0580 h1         1 1YU       0.086200
     49 H10          2.5650    -2.5420    -0.7520 h1         1 1YU       0.086200
     50 H11          0.2120    -3.0540     0.0760 h1         1 1YU       0.089200
     51 H12         -1.2540    -2.3180    -0.5870 h1         1 1YU       0.089200
     52 H14          4.0760    -0.9290     0.6070 hn         1 1YU       0.428000
     53 H16          4.7120     0.0640    -1.5420 h1         1 1YU       0.039200
     54 H17          3.8910     1.5120    -0.9830 h1         1 1YU       0.039200
     55 H18          6.9790    -0.0860    -1.1880 ha         1 1YU       0.108000
     56 H19          8.9190     2.1610     1.9050 ha         1 1YU       0.114000
     57 H20          6.7490     3.0100     2.6280 ha         1 1YU       0.114000
     58 H21          4.6760     2.3210     1.4740 ha         1 1YU       0.118000
     59 H22         10.5610     0.6260     1.6880 hc         1 1YU       0.035589
     60 H23         11.5710     0.4680     0.2570 hc         1 1YU       0.035589
     61 H24         10.7510     1.9900     0.5820 hc         1 1YU       0.035589
     62 H25          8.6470    -1.5590    -0.7270 hc         1 1YU       0.035589
     63 H26         10.3800    -1.5550    -0.4160 hc         1 1YU       0.035589
     64 H27          9.2420    -1.4570     0.9290 hc         1 1YU       0.035589
     65 H28          9.7320     1.9020    -1.7500 hc         1 1YU       0.035589
     66 H29         10.6350     0.4090    -2.0190 hc         1 1YU       0.035589
     67 H30          8.9000     0.4510    -2.3090 hc         1 1YU       0.035589
     68 H31          2.4120     0.6280     1.8400 ho         1 1YU       0.476000
     69 H32         -7.0390    -1.1420     0.6490 hn         1 1YU       0.464500
     70 H33         -6.9320    -2.7010     1.2120 hn         1 1YU       0.464500
@<TRIPOS>BOND
     1     1     2 1   
     2     2     3 1   
     3     2     4 1   
     4     2     5 1   
     5     5     6 1   
     6     5    36 1   
     7     5    40 1   
     8     6     7 1   
     9     7     8 ar  
    10     7    12 ar  
    11     8     9 ar  
    12     8    35 1   
    13     9    10 ar  
    14     9    34 1   
    15    10    11 ar  
    16    10    41 1   
    17    11    12 ar  
    18    11    13 1   
    19    12    42 1   
    20    13    14 1   
    21    13    43 1   
    22    13    44 1   
    23    14    15 1   
    24    14    19 1   
    25    14    45 1   
    26    15    16 1   
    27    15    33 1   
    28    15    46 1   
    29    16    17 1   
    30    16    21 1   
    31    16    47 1   
    32    17    18 1   
    33    17    48 1   
    34    17    49 1   
    35    18    19 1   
    36    18    20 2   
    37    19    50 1   
    38    19    51 1   
    39    21    22 1   
    40    21    52 1   
    41    22    23 1   
    42    22    53 1   
    43    22    54 1   
    44    23    24 ar  
    45    23    28 ar  
    46    24    25 ar  
    47    24    55 1   
    48    25    26 ar  
    49    25    29 1   
    50    26    27 ar  
    51    26    56 1   
    52    27    28 ar  
    53    27    57 1   
    54    28    58 1   
    55    29    30 1   
    56    29    31 1   
    57    29    32 1   
    58    30    59 1   
    59    30    60 1   
    60    30    61 1   
    61    31    62 1   
    62    31    63 1   
    63    31    64 1   
    64    32    65 1   
    65    32    66 1   
    66    32    67 1   
    67    33    68 1   
    68    35    69 1   
    69    35    70 1   
    70    36    37 1   
    71    36    38 1   
    72    36    39 1   
@<TRIPOS>SUBSTRUCTURE
     1 1YU         1 TEMP              0 ****  ****    0 ROOT
