@<TRIPOS>MOLECULE
1YV
   46    47     1     0     0
SMALL
abcg2


@<TRIPOS>ATOM
      1 O23          4.8480     0.1560    -1.7300 o          1 1YV      -0.525500
      2 S24          5.0980     0.0880    -0.2960 s6         1 1YV       1.172100
      3 O22          6.3610    -0.4650     0.1770 o          1 1YV      -0.525500
      4 C18          4.9130     1.7560     0.3740 c3         1 1YV      -0.306700
      5 C2           5.0100     1.7360     1.8900 c3         1 1YV      -0.074600
      6 C1           5.9520     2.6640    -0.2700 c3         1 1YV      -0.074600
      7 N21          3.9150    -0.8500     0.3600 n7         1 1YV      -0.875300
      8 C12          2.5130    -0.5210     0.1350 c3         1 1YV       0.205800
      9 C19          1.6340    -1.7610     0.3280 c3         1 1YV      -0.013400
     10 C3           1.9770    -2.8670    -0.6660 c3         1 1YV      -0.080100
     11 C17          0.1850    -1.3470     0.2470 ca         1 1YV      -0.079300
     12 C10         -0.6320    -1.3810     1.3720 ca         1 1YV      -0.106500
     13 C11         -0.3690    -0.8960    -0.9500 ca         1 1YV      -0.106500
     14 C9          -1.6920    -0.4940    -1.0190 ca         1 1YV      -0.094000
     15 C16         -2.5120    -0.5320     0.1100 cp         1 1YV      -0.042000
     16 C8          -1.9590    -0.9840     1.3070 ca         1 1YV      -0.094000
     17 C15         -3.9200    -0.0990     0.0410 cp         1 1YV      -0.009000
     18 C6          -4.9020    -0.7410     0.8010 ca         1 1YV      -0.106000
     19 C7          -4.3010     0.9640    -0.7810 ca         1 1YV      -0.106000
     20 C5          -5.6180     1.3780    -0.8460 ca         1 1YV      -0.071000
     21 C14         -6.5840     0.7280    -0.0790 ca         1 1YV      -0.017000
     22 C4          -6.2220    -0.3360     0.7470 ca         1 1YV      -0.071000
     23 C13         -7.9450     1.1510    -0.1390 cg         1 1YV       0.323000
     24 N20         -9.0440     1.4940    -0.1870 n1         1 1YV      -0.450000
     25 H1           3.9110     2.0710     0.0660 h1         1 1YV       0.086700
     26 H2           4.8590     2.7480     2.2640 hc         1 1YV       0.050533
     27 H3           4.2480     1.1070     2.3510 hc         1 1YV       0.050533
     28 H4           5.9910     1.3990     2.2240 hc         1 1YV       0.050533
     29 H5           5.8770     2.6700    -1.3560 hc         1 1YV       0.050533
     30 H6           5.7900     3.6830     0.0780 hc         1 1YV       0.050533
     31 H7           6.9640     2.3720     0.0110 hc         1 1YV       0.050533
     32 H8           4.1310    -1.1390     1.3070 hn         1 1YV       0.484000
     33 H9           2.1760     0.2750     0.8080 h1         1 1YV       0.052200
     34 H10          2.4010    -0.1540    -0.8860 h1         1 1YV       0.052200
     35 H11          1.8130    -2.1380     1.3400 hc         1 1YV       0.051700
     36 H12          1.8520    -2.5310    -1.6980 hc         1 1YV       0.044033
     37 H13          3.0090    -3.1930    -0.5470 hc         1 1YV       0.044033
     38 H14          1.3320    -3.7320    -0.5150 hc         1 1YV       0.044033
     39 H15         -0.2270    -1.7170     2.3190 ha         1 1YV       0.116500
     40 H16          0.2340    -0.8620    -1.8500 ha         1 1YV       0.116500
     41 H17         -2.0920    -0.1690    -1.9710 ha         1 1YV       0.117500
     42 H18         -2.5600    -1.0060     2.2080 ha         1 1YV       0.117500
     43 H19         -4.6390    -1.5820     1.4280 ha         1 1YV       0.122000
     44 H20         -3.5610     1.4920    -1.3660 ha         1 1YV       0.122000
     45 H21         -5.8940     2.2090    -1.4800 ha         1 1YV       0.127000
     46 H22         -6.9700    -0.8460     1.3390 ha         1 1YV       0.127000
@<TRIPOS>BOND
     1     1     2 2   
     2     2     3 2   
     3     2     4 1   
     4     2     7 1   
     5     4     5 1   
     6     4     6 1   
     7     4    25 1   
     8     5    26 1   
     9     5    27 1   
    10     5    28 1   
    11     6    29 1   
    12     6    30 1   
    13     6    31 1   
    14     7     8 1   
    15     7    32 1   
    16     8     9 1   
    17     8    33 1   
    18     8    34 1   
    19     9    10 1   
    20     9    11 1   
    21     9    35 1   
    22    10    36 1   
    23    10    37 1   
    24    10    38 1   
    25    11    12 ar  
    26    11    13 ar  
    27    12    16 ar  
    28    12    39 1   
    29    13    14 ar  
    30    13    40 1   
    31    14    15 ar  
    32    14    41 1   
    33    15    16 ar  
    34    15    17 1   
    35    16    42 1   
    36    17    18 ar  
    37    17    19 ar  
    38    18    22 ar  
    39    18    43 1   
    40    19    20 ar  
    41    19    44 1   
    42    20    21 ar  
    43    20    45 1   
    44    21    22 ar  
    45    21    23 1   
    46    22    46 1   
    47    23    24 3   
@<TRIPOS>SUBSTRUCTURE
     1 1YV         1 TEMP              0 ****  ****    0 ROOT
