@<TRIPOS>MOLECULE
1YV
   46    47     1     0     0
SMALL
No Charge or Current Charge


@<TRIPOS>ATOM
      1 O23          4.9350     0.5130    -1.9470 o          1 1YV      -0.525500
      2 S24          5.2220     0.2130    -0.5420 s6         1 1YV       1.172100
      3 O22          6.5060    -0.3830    -0.1690 o          1 1YV      -0.525500
      4 C18          4.8970     1.6870     0.4860 c3         1 1YV      -0.306700
      5 C2           4.9250     1.3860     2.0100 c3         1 1YV      -0.074600
      6 C1           5.8630     2.8420     0.1170 c3         1 1YV      -0.074600
      7 N21          4.0630    -0.8790    -0.0500 n7         1 1YV      -0.875300
      8 C12          2.6420    -0.5700    -0.2970 c3         1 1YV       0.205800
      9 C19          1.7210    -1.6920     0.2470 c3         1 1YV      -0.013400
     10 C3           1.9370    -3.0450    -0.4750 c3         1 1YV      -0.080100
     11 C17          0.2510    -1.2680     0.1860 ca         1 1YV      -0.079300
     12 C10         -0.5010    -1.1450     1.3700 ca         1 1YV      -0.106500
     13 C11         -0.3720    -0.9920    -1.0480 ca         1 1YV      -0.106500
     14 C9          -1.7200    -0.6000    -1.0940 ca         1 1YV      -0.094000
     15 C16         -2.4890    -0.4720     0.0890 cp         1 1YV      -0.042000
     16 C8          -1.8500    -0.7540     1.3210 ca         1 1YV      -0.094000
     17 C15         -3.9270    -0.0540     0.0380 cp         1 1YV      -0.009000
     18 C6          -4.8760    -0.5800     0.9510 ca         1 1YV      -0.106000
     19 C7          -4.3850     0.8800    -0.9250 ca         1 1YV      -0.106000
     20 C5          -5.7340     1.2740    -0.9730 ca         1 1YV      -0.071000
     21 C14         -6.6600     0.7400    -0.0580 ca         1 1YV      -0.017000
     22 C4          -6.2260    -0.1890     0.9050 ca         1 1YV      -0.071000
     23 C13         -8.0400     1.1410    -0.1070 cg         1 1YV       0.323000
     24 N20         -9.1590     1.4720    -0.1390 n1         1 1YV      -0.450000
     25 H1           3.8840     2.0030     0.2130 h1         1 1YV       0.086700
     26 H2           4.7410     2.3020     2.5850 hc         1 1YV       0.050533
     27 H3           4.1500     0.6650     2.2960 hc         1 1YV       0.050533
     28 H4           5.9010     0.9880     2.3180 hc         1 1YV       0.050533
     29 H5           5.7940     3.0870    -0.9500 hc         1 1YV       0.050533
     30 H6           5.6180     3.7480     0.6840 hc         1 1YV       0.050533
     31 H7           6.9040     2.5730     0.3400 hc         1 1YV       0.050533
     32 H8           4.2290    -0.9000     0.9530 hn         1 1YV       0.484000
     33 H9           2.3590     0.3730     0.1920 h1         1 1YV       0.052200
     34 H10          2.4560    -0.4490    -1.3730 h1         1 1YV       0.052200
     35 H11          1.9930    -1.8480     1.2990 hc         1 1YV       0.051700
     36 H12          1.7540    -2.9520    -1.5520 hc         1 1YV       0.044033
     37 H13          2.9630    -3.4060    -0.3340 hc         1 1YV       0.044033
     38 H14          1.2560    -3.8050    -0.0750 hc         1 1YV       0.044033
     39 H15         -0.0420    -1.3490     2.3350 ha         1 1YV       0.116500
     40 H16          0.1860    -1.0840    -1.9770 ha         1 1YV       0.116500
     41 H17         -2.1760    -0.4070    -2.0620 ha         1 1YV       0.117500
     42 H18         -2.4000    -0.6540     2.2540 ha         1 1YV       0.117500
     43 H19         -4.5670    -1.3090     1.6950 ha         1 1YV       0.122000
     44 H20         -3.6860     1.3170    -1.6330 ha         1 1YV       0.122000
     45 H21         -6.0560     1.9960    -1.7220 ha         1 1YV       0.127000
     46 H22         -6.9320    -0.6120     1.6170 ha         1 1YV       0.127000
@<TRIPOS>BOND
     1     1     2 2   
     2     2     3 2   
     3     2     4 1   
     4     2     7 1   
     5     4     5 1   
     6     4     6 1   
     7     4    25 1   
     8     5    26 1   
     9     5    27 1   
    10     5    28 1   
    11     6    29 1   
    12     6    30 1   
    13     6    31 1   
    14     7     8 1   
    15     7    32 1   
    16     8     9 1   
    17     8    33 1   
    18     8    34 1   
    19     9    10 1   
    20     9    11 1   
    21     9    35 1   
    22    10    36 1   
    23    10    37 1   
    24    10    38 1   
    25    11    12 ar  
    26    11    13 ar  
    27    12    16 ar  
    28    12    39 1   
    29    13    14 ar  
    30    13    40 1   
    31    14    15 ar  
    32    14    41 1   
    33    15    16 ar  
    34    15    17 1   
    35    16    42 1   
    36    17    18 ar  
    37    17    19 ar  
    38    18    22 ar  
    39    18    43 1   
    40    19    20 ar  
    41    19    44 1   
    42    20    21 ar  
    43    20    45 1   
    44    21    22 ar  
    45    21    23 1   
    46    22    46 1   
    47    23    24 3   
@<TRIPOS>SUBSTRUCTURE
     1 1YV         1 TEMP              0 ****  ****    0 ROOT
