@<TRIPOS>MOLECULE
1YW
   42    44     1     0     0
SMALL
abcg2


@<TRIPOS>ATOM
      1 O21          6.5320    -1.3780     0.5430 o          1 1YW      -0.613100
      2 C22          6.4470    -0.3020    -0.0350 c          1 1YW       0.601100
      3 C20          7.6410     0.5980    -0.2290 c3         1 1YW      -0.178100
      4 N19          5.2910     0.1530    -0.5490 ns         1 1YW      -0.499900
      5 C18          4.0460    -0.5660    -0.4500 c3         1 1YW       0.092000
      6 C17          3.3440    -0.3760     0.8880 c5         1 1YW       0.095300
      7 O8           3.1220     1.0320     1.1140 os         1 1YW      -0.277000
      8 C9           1.9450    -0.9790     0.8870 c5         1 1YW      -0.165700
      9 C6           1.1280     0.2690     0.7390 ce         1 1YW       0.354900
     10 N10          1.8130     1.3330     0.8780 n2         1 1YW      -0.263700
     11 C4          -0.3130     0.3100     0.4990 ca         1 1YW      -0.099900
     12 C2          -1.0020     1.5200     0.3900 ca         1 1YW      -0.088000
     13 C5          -1.0220    -0.8840     0.3790 ca         1 1YW      -0.136000
     14 C3          -2.3820    -0.8430     0.1540 ca         1 1YW       0.133000
     15 F7          -3.0420    -2.0060     0.0400 f          1 1YW      -0.180000
     16 C11         -3.0980     0.3460     0.0350 ca         1 1YW       0.239000
     17 C1          -2.3650     1.5260     0.1610 ca         1 1YW      -0.079000
     18 N15         -4.4830     0.3900    -0.1940 nh         1 1YW      -0.814400
     19 C13         -5.3560     0.0020     0.9120 c5         1 1YW       0.197800
     20 C14         -4.9940    -0.1480    -1.4630 c5         1 1YW       0.197800
     21 C16         -6.2940    -0.8610    -1.0890 c5         1 1YW      -0.091900
     22 C12         -6.6990    -0.2020     0.2270 c5         1 1YW      -0.091900
     23 H1           8.3960     0.0740    -0.8160 hc         1 1YW       0.061033
     24 H2           7.4050     1.5340    -0.7320 hc         1 1YW       0.061033
     25 H3           8.0850     0.8260     0.7400 hc         1 1YW       0.061033
     26 H4           5.2750     1.0610    -0.9820 hn         1 1YW       0.322500
     27 H5           3.3980    -0.2270    -1.2600 h1         1 1YW       0.060700
     28 H6           4.2180    -1.6330    -0.6030 h1         1 1YW       0.060700
     29 H7           3.9690    -0.7430     1.7030 h1         1 1YW       0.102700
     30 H8           1.7940    -1.6870     0.0700 hc         1 1YW       0.078200
     31 H9           1.6950    -1.4960     1.8170 hc         1 1YW       0.078200
     32 H10         -0.4690     2.4570     0.4820 ha         1 1YW       0.140000
     33 H11         -0.5280    -1.8440     0.4610 ha         1 1YW       0.130000
     34 H12         -2.8960     2.4660     0.0690 ha         1 1YW       0.133000
     35 H13         -5.0380    -0.9280     1.4030 h1         1 1YW       0.042950
     36 H14         -5.3840     0.7820     1.6760 h1         1 1YW       0.042950
     37 H15         -5.1780     0.6700    -2.1670 h1         1 1YW       0.042950
     38 H16         -4.2890    -0.8270    -1.9500 h1         1 1YW       0.042950
     39 H17         -7.0530    -0.7780    -1.8670 hc         1 1YW       0.051950
     40 H18         -6.1050    -1.9240    -0.9250 hc         1 1YW       0.051950
     41 H19         -7.3780    -0.8130     0.8210 hc         1 1YW       0.051950
     42 H20         -7.1820     0.7600     0.0440 hc         1 1YW       0.051950
@<TRIPOS>BOND
     1     1     2 2   
     2     2     3 1   
     3     2     4 1   
     4     3    23 1   
     5     3    24 1   
     6     3    25 1   
     7     4     5 1   
     8     4    26 1   
     9     5     6 1   
    10     5    27 1   
    11     5    28 1   
    12     6     7 1   
    13     6     8 1   
    14     6    29 1   
    15     7    10 1   
    16     8     9 1   
    17     8    30 1   
    18     8    31 1   
    19     9    10 2   
    20     9    11 1   
    21    11    12 ar  
    22    11    13 ar  
    23    12    17 ar  
    24    12    32 1   
    25    13    14 ar  
    26    13    33 1   
    27    14    15 1   
    28    14    16 ar  
    29    16    17 ar  
    30    16    18 1   
    31    17    34 1   
    32    18    19 1   
    33    18    20 1   
    34    19    22 1   
    35    19    35 1   
    36    19    36 1   
    37    20    21 1   
    38    20    37 1   
    39    20    38 1   
    40    21    22 1   
    41    21    39 1   
    42    21    40 1   
    43    22    41 1   
    44    22    42 1   
@<TRIPOS>SUBSTRUCTURE
     1 1YW         1 TEMP              0 ****  ****    0 ROOT
