@<TRIPOS>MOLECULE
1YW
   42    44     1     0     0
SMALL
No Charge or Current Charge


@<TRIPOS>ATOM
      1 O21          6.6760    -1.1180     0.2730 o          1 1YW      -0.613100
      2 C22          6.5040    -0.0020    -0.1960 c          1 1YW       0.601100
      3 C20          7.6370     1.0010    -0.3630 c3         1 1YW      -0.178100
      4 N19          5.2720     0.4410    -0.6170 ns         1 1YW      -0.499900
      5 C18          4.0260    -0.3310    -0.5170 c3         1 1YW       0.092000
      6 C17          3.4950    -0.5150     0.9300 c5         1 1YW       0.095300
      7 O8           3.2090     0.7810     1.5020 os         1 1YW      -0.277000
      8 C9           2.1360    -1.2600     1.0130 c5         1 1YW      -0.165700
      9 C6           1.1980    -0.0690     1.0540 ce         1 1YW       0.354900
     10 N10          1.8240     1.0070     1.4030 n2         1 1YW      -0.263700
     11 C4          -0.2680    -0.1040     0.7370 ca         1 1YW      -0.099900
     12 C2          -1.0240     1.0860     0.6710 ca         1 1YW      -0.088000
     13 C5          -0.9300    -1.3320     0.5270 ca         1 1YW      -0.136000
     14 C3          -2.3060    -1.3700     0.2420 ca         1 1YW       0.133000
     15 F7          -2.8880    -2.5820     0.0730 f          1 1YW      -0.180000
     16 C11         -3.0670    -0.1730     0.1640 ca         1 1YW       0.239000
     17 C1          -2.4010     1.0490     0.3870 ca         1 1YW      -0.079000
     18 N15         -4.4620    -0.1670    -0.1260 nh         1 1YW      -0.814400
     19 C13         -5.4610     0.6390     0.6290 c5         1 1YW       0.197800
     20 C14         -5.0640    -0.8650    -1.2940 c5         1 1YW       0.197800
     21 C16         -6.5780    -0.7350    -0.9850 c5         1 1YW      -0.091900
     22 C12         -6.6430     0.6860    -0.3720 c5         1 1YW      -0.091900
     23 H1           7.6790     1.3210    -1.4110 hc         1 1YW       0.061033
     24 H2           7.3700     1.9300     0.1530 hc         1 1YW       0.061033
     25 H3           8.6010     0.6100    -0.0200 hc         1 1YW       0.061033
     26 H4           5.2290     1.3850    -0.9830 hn         1 1YW       0.322500
     27 H5           3.2580     0.1720    -1.1200 h1         1 1YW       0.060700
     28 H6           4.1940    -1.3220    -0.9610 h1         1 1YW       0.060700
     29 H7           4.2700    -1.0150     1.5280 h1         1 1YW       0.102700
     30 H8           1.9530    -1.9190     0.1570 hc         1 1YW       0.078200
     31 H9           2.0560    -1.8530     1.9300 hc         1 1YW       0.078200
     32 H10         -0.5490     2.0520     0.8320 ha         1 1YW       0.140000
     33 H11         -0.3870    -2.2720     0.5900 ha         1 1YW       0.130000
     34 H12         -2.9510     1.9830     0.3250 ha         1 1YW       0.133000
     35 H13         -5.7470     0.1330     1.5620 h1         1 1YW       0.042950
     36 H14         -5.1090     1.6500     0.8760 h1         1 1YW       0.042950
     37 H15         -4.8040    -0.3540    -2.2320 h1         1 1YW       0.042950
     38 H16         -4.7660    -1.9180    -1.3760 h1         1 1YW       0.042950
     39 H17         -7.1970    -0.8420    -1.8830 hc         1 1YW       0.051950
     40 H18         -6.9030    -1.4970    -0.2660 hc         1 1YW       0.051950
     41 H19         -7.5990     0.8950     0.1200 hc         1 1YW       0.051950
     42 H20         -6.4870     1.4580    -1.1350 hc         1 1YW       0.051950
@<TRIPOS>BOND
     1     1     2 2   
     2     2     3 1   
     3     2     4 1   
     4     3    23 1   
     5     3    24 1   
     6     3    25 1   
     7     4     5 1   
     8     4    26 1   
     9     5     6 1   
    10     5    27 1   
    11     5    28 1   
    12     6     7 1   
    13     6     8 1   
    14     6    29 1   
    15     7    10 1   
    16     8     9 1   
    17     8    30 1   
    18     8    31 1   
    19     9    10 2   
    20     9    11 1   
    21    11    12 ar  
    22    11    13 ar  
    23    12    17 ar  
    24    12    32 1   
    25    13    14 ar  
    26    13    33 1   
    27    14    15 1   
    28    14    16 ar  
    29    16    17 ar  
    30    16    18 1   
    31    17    34 1   
    32    18    19 1   
    33    18    20 1   
    34    19    22 1   
    35    19    35 1   
    36    19    36 1   
    37    20    21 1   
    38    20    37 1   
    39    20    38 1   
    40    21    22 1   
    41    21    39 1   
    42    21    40 1   
    43    22    41 1   
    44    22    42 1   
@<TRIPOS>SUBSTRUCTURE
     1 1YW         1 TEMP              0 ****  ****    0 ROOT
