@<TRIPOS>MOLECULE
1YX
   56    58     1     0     0
SMALL
No Charge or Current Charge


@<TRIPOS>ATOM
      1 C1          -6.8480     2.1500    -0.2340 c3         1 1YX      -0.076600
      2 C2          -7.1750     1.2650     1.0010 c3         1 1YX      -0.306700
      3 C3          -8.4680     1.7410     1.7140 c3         1 1YX      -0.076600
      4 S1          -7.2690    -0.5150     0.6030 s6         1 1YX       1.176100
      5 O1          -7.3150    -1.2990     1.8400 o          1 1YX      -0.527500
      6 O2          -8.2650    -0.7430    -0.4450 o          1 1YX      -0.527500
      7 N1          -5.7950    -0.8420    -0.1010 n7         1 1YX      -0.874300
      8 C4          -4.5710    -0.7440     0.7180 c3         1 1YX       0.192800
      9 C5          -3.2950    -0.9150    -0.1450 c5         1 1YX       0.121300
     10 C6          -1.9490    -0.7670     0.6100 c5         1 1YX      -0.170700
     11 C7          -1.1200    -0.1520    -0.5010 ce         1 1YX       0.377900
     12 N2          -1.8730     0.3850    -1.4040 n2         1 1YX      -0.274700
     13 O3          -3.2300     0.1140    -1.1580 os         1 1YX      -0.282000
     14 C8           0.3780    -0.1240    -0.5560 ca         1 1YX      -0.166900
     15 C9           1.0500     0.3720    -1.6920 ca         1 1YX      -0.033000
     16 C10          2.4550     0.4100    -1.7350 ca         1 1YX      -0.188000
     17 C11          3.2350    -0.0340    -0.6470 ca         1 1YX       0.338000
     18 C12          2.5510    -0.5260     0.5010 ca         1 1YX       0.080000
     19 C13          1.1460    -0.5660     0.5410 ca         1 1YX      -0.084000
     20 F1           3.2210    -0.9900     1.5850 f          1 1YX      -0.188000
     21 N3           4.6600     0.0300    -0.7430 nh         1 1YX      -0.828400
     22 C14          5.4060     0.1030    -2.0310 c5         1 1YX       0.221800
     23 C15          6.8600    -0.1770    -1.5730 c5         1 1YX      -0.113400
     24 C16          6.8910     0.6220    -0.2480 c5         1 1YX       0.088700
     25 C17          5.5780     0.1270     0.4310 c5         1 1YX       0.217800
     26 N4           8.0260     0.0730     0.5140 ns         1 1YX      -0.503900
     27 C18          8.3780     0.6830     1.7010 c          1 1YX       0.605100
     28 O4           7.8000     1.6640     2.1480 o          1 1YX      -0.599100
     29 C19          9.5540     0.0350     2.4170 c3         1 1YX      -0.181100
     30 H1          -5.8670     1.9070    -0.6590 hc         1 1YX       0.051533
     31 H2          -7.6060     2.0320    -1.0180 hc         1 1YX       0.051533
     32 H3          -6.8220     3.2090     0.0510 hc         1 1YX       0.051533
     33 H4          -6.3510     1.3510     1.7180 h1         1 1YX       0.085700
     34 H5          -9.3390     1.6510     1.0530 hc         1 1YX       0.051533
     35 H6          -8.6600     1.1480     2.6170 hc         1 1YX       0.051533
     36 H7          -8.3780     2.7910     2.0180 hc         1 1YX       0.051533
     37 H8          -5.7590    -0.1170    -0.8140 hn         1 1YX       0.501000
     38 H9          -4.5080     0.2300     1.2230 h1         1 1YX       0.056200
     39 H10         -4.5680    -1.5180     1.4980 h1         1 1YX       0.056200
     40 H11         -3.3410    -1.8880    -0.6540 h1         1 1YX       0.099700
     41 H12         -2.0210    -0.0880     1.4660 hc         1 1YX       0.078200
     42 H13         -1.5540    -1.7280     0.9560 hc         1 1YX       0.078200
     43 H14          0.4890     0.7300    -2.5540 ha         1 1YX       0.135000
     44 H15          2.9320     0.8040    -2.6260 ha         1 1YX       0.120000
     45 H16          0.6630    -0.9440     1.4380 ha         1 1YX       0.126000
     46 H17          5.0630    -0.6460    -2.7600 h1         1 1YX       0.050200
     47 H18          5.3180     1.1000    -2.4850 h1         1 1YX       0.050200
     48 H19          7.0160    -1.2510    -1.4190 hc         1 1YX       0.063700
     49 H20          7.6020     0.1700    -2.3000 hc         1 1YX       0.063700
     50 H21          6.9130     1.7110    -0.4000 h1         1 1YX       0.093700
     51 H22          5.2250     0.8410     1.1880 h1         1 1YX       0.058700
     52 H23          5.7130    -0.8540     0.9060 h1         1 1YX       0.058700
     53 H24          8.5680    -0.7320     0.2240 hn         1 1YX       0.311500
     54 H25         10.4100    -0.0060     1.7340 hc         1 1YX       0.062367
     55 H26          9.8090     0.5430     3.3550 hc         1 1YX       0.062367
     56 H27          9.3330    -1.0260     2.5790 hc         1 1YX       0.062367
@<TRIPOS>BOND
     1     1     2 1   
     2     1    30 1   
     3     1    31 1   
     4     1    32 1   
     5     2     3 1   
     6     2     4 1   
     7     2    33 1   
     8     3    34 1   
     9     3    35 1   
    10     3    36 1   
    11     4     5 2   
    12     4     6 2   
    13     4     7 1   
    14     7     8 1   
    15     7    37 1   
    16     8     9 1   
    17     8    38 1   
    18     8    39 1   
    19     9    10 1   
    20     9    13 1   
    21     9    40 1   
    22    10    11 1   
    23    10    41 1   
    24    10    42 1   
    25    11    12 2   
    26    11    14 1   
    27    12    13 1   
    28    14    15 ar  
    29    14    19 ar  
    30    15    16 ar  
    31    15    43 1   
    32    16    17 ar  
    33    16    44 1   
    34    17    18 ar  
    35    17    21 1   
    36    18    19 ar  
    37    18    20 1   
    38    19    45 1   
    39    21    22 1   
    40    21    25 1   
    41    22    23 1   
    42    22    46 1   
    43    22    47 1   
    44    23    24 1   
    45    23    48 1   
    46    23    49 1   
    47    24    25 1   
    48    24    26 1   
    49    24    50 1   
    50    25    51 1   
    51    25    52 1   
    52    26    27 1   
    53    26    53 1   
    54    27    28 2   
    55    27    29 1   
    56    29    54 1   
    57    29    55 1   
    58    29    56 1   
@<TRIPOS>SUBSTRUCTURE
     1 1YX         1 TEMP              0 ****  ****    0 ROOT
