@<TRIPOS>MOLECULE
1YX
   56    58     1     0     0
SMALL
abcg2


@<TRIPOS>ATOM
      1 C1          -6.1300     2.6190     0.1050 c3         1 1YX      -0.076600
      2 C2          -6.4750     1.6600     1.2320 c3         1 1YX      -0.306700
      3 C3          -7.6560     2.1330     2.0700 c3         1 1YX      -0.076600
      4 S1          -6.8530     0.0210     0.5730 s6         1 1YX       1.176100
      5 O1          -6.9780    -0.8950     1.6990 o          1 1YX      -0.527500
      6 O2          -7.9560     0.1450    -0.3700 o          1 1YX      -0.527500
      7 N1          -5.5580    -0.4780    -0.3130 n7         1 1YX      -0.874300
      8 C4          -4.2770    -0.7330     0.3280 c3         1 1YX       0.192800
      9 C5          -3.4690    -1.7030    -0.5150 c5         1 1YX       0.121300
     10 C6          -2.0590    -1.9080     0.0230 c5         1 1YX      -0.170700
     11 C7          -1.2750    -1.1060    -0.9720 ce         1 1YX       0.377900
     12 N2          -1.9760    -0.7120    -1.9610 n2         1 1YX      -0.274700
     13 O3          -3.2720    -1.1450    -1.8280 os         1 1YX      -0.282000
     14 C8           0.1510    -0.8310    -0.8730 ca         1 1YX      -0.166900
     15 C9           0.8450    -0.1240    -1.8570 ca         1 1YX      -0.033000
     16 C10          2.1990     0.1140    -1.7470 ca         1 1YX      -0.188000
     17 C11          2.9570    -0.3420    -0.6490 ca         1 1YX       0.338000
     18 C12          2.2320    -1.0690     0.3090 ca         1 1YX       0.080000
     19 C13          0.8810    -1.3000     0.2190 ca         1 1YX      -0.084000
     20 F1           2.8810    -1.6000     1.3660 f          1 1YX      -0.188000
     21 N3           4.2960    -0.1080    -0.5700 nh         1 1YX      -0.828400
     22 C14          5.0170     0.5080    -1.6760 c5         1 1YX       0.221800
     23 C15          6.4590     0.5000    -1.2040 c5         1 1YX      -0.113400
     24 C16          6.3100     0.7260     0.2980 c5         1 1YX       0.088700
     25 C17          5.0800    -0.1120     0.6570 c5         1 1YX       0.217800
     26 N4           7.4550     0.3610     1.0880 ns         1 1YX      -0.503900
     27 C18          8.3770     1.2340     1.5360 c          1 1YX       0.605100
     28 O4           8.2910     2.4430     1.3690 o          1 1YX      -0.599100
     29 C19          9.5480     0.6090     2.2520 c3         1 1YX      -0.181100
     30 H1          -5.2300     2.3230    -0.4320 hc         1 1YX       0.051533
     31 H2          -6.9490     2.7160    -0.6070 hc         1 1YX       0.051533
     32 H3          -5.9390     3.6050     0.5290 hc         1 1YX       0.051533
     33 H4          -5.6060     1.5100     1.8780 h1         1 1YX       0.085700
     34 H5          -8.5530     2.2530     1.4630 hc         1 1YX       0.051533
     35 H6          -7.8750     1.4520     2.8900 hc         1 1YX       0.051533
     36 H7          -7.4130     3.1030     2.5020 hc         1 1YX       0.051533
     37 H8          -5.4970    -0.0170    -1.2140 hn         1 1YX       0.501000
     38 H9          -3.7080     0.1890     0.5000 h1         1 1YX       0.056200
     39 H10         -4.4530    -1.1960     1.2990 h1         1 1YX       0.056200
     40 H11         -4.0220    -2.6350    -0.6340 h1         1 1YX       0.099700
     41 H12         -1.9370    -1.5440     1.0450 hc         1 1YX       0.078200
     42 H13         -1.7470    -2.9550     0.0120 hc         1 1YX       0.078200
     43 H14          0.3200     0.2550    -2.7240 ha         1 1YX       0.135000
     44 H15          2.6840     0.6750    -2.5320 ha         1 1YX       0.120000
     45 H16          0.4070    -1.8690     1.0090 ha         1 1YX       0.126000
     46 H17          4.8780    -0.0590    -2.5990 h1         1 1YX       0.050200
     47 H18          4.6720     1.5330    -1.8620 h1         1 1YX       0.050200
     48 H19          6.9180    -0.4730    -1.3950 hc         1 1YX       0.063700
     49 H20          7.0620     1.2660    -1.6900 hc         1 1YX       0.063700
     50 H21          6.0960     1.7790     0.4830 h1         1 1YX       0.093700
     51 H22          4.5380     0.3290     1.4950 h1         1 1YX       0.058700
     52 H23          5.3830    -1.1240     0.9440 h1         1 1YX       0.058700
     53 H24          7.6360    -0.6230     1.2090 hn         1 1YX       0.311500
     54 H25         10.4160     0.6150     1.5910 hc         1 1YX       0.062367
     55 H26          9.8040     1.2010     3.1300 hc         1 1YX       0.062367
     56 H27          9.3670    -0.4180     2.5630 hc         1 1YX       0.062367
@<TRIPOS>BOND
     1     1     2 1   
     2     1    30 1   
     3     1    31 1   
     4     1    32 1   
     5     2     3 1   
     6     2     4 1   
     7     2    33 1   
     8     3    34 1   
     9     3    35 1   
    10     3    36 1   
    11     4     5 2   
    12     4     6 2   
    13     4     7 1   
    14     7     8 1   
    15     7    37 1   
    16     8     9 1   
    17     8    38 1   
    18     8    39 1   
    19     9    10 1   
    20     9    13 1   
    21     9    40 1   
    22    10    11 1   
    23    10    41 1   
    24    10    42 1   
    25    11    12 2   
    26    11    14 1   
    27    12    13 1   
    28    14    15 ar  
    29    14    19 ar  
    30    15    16 ar  
    31    15    43 1   
    32    16    17 ar  
    33    16    44 1   
    34    17    18 ar  
    35    17    21 1   
    36    18    19 ar  
    37    18    20 1   
    38    19    45 1   
    39    21    22 1   
    40    21    25 1   
    41    22    23 1   
    42    22    46 1   
    43    22    47 1   
    44    23    24 1   
    45    23    48 1   
    46    23    49 1   
    47    24    25 1   
    48    24    26 1   
    49    24    50 1   
    50    25    51 1   
    51    25    52 1   
    52    26    27 1   
    53    26    53 1   
    54    27    28 2   
    55    27    29 1   
    56    29    54 1   
    57    29    55 1   
    58    29    56 1   
@<TRIPOS>SUBSTRUCTURE
     1 1YX         1 TEMP              0 ****  ****    0 ROOT
