@<TRIPOS>MOLECULE
1YY
   65    68     1     0     0
SMALL
abcg2


@<TRIPOS>ATOM
      1 C22         36.0260   -20.6530    14.0570 c3         1 1YY      -0.119100
      2 C21         36.4180   -22.0250    13.4920 c6         1 1YY       0.150500
      3 C20         36.1000   -22.1320    12.0020 c6         1 1YY       0.156600
      4 O4          36.9530   -21.3050    11.2140 os         1 1YY      -0.458000
      5 C19         38.3170   -21.6840    11.3930 c6         1 1YY       0.149600
      6 C18         38.7280   -21.5930    12.8520 c6         1 1YY       0.146800
      7 N3          37.8320   -22.4010    13.6730 n3         1 1YY      -0.742600
      8 C5          38.2740   -22.5150    15.0520 c3         1 1YY       0.153800
      9 C3          37.6610   -23.7290    15.7690 c6         1 1YY       0.224500
     10 C2          38.0310   -25.0360    15.0820 c6         1 1YY       0.192800
     11 N1          39.4550   -25.3160    15.2940 n3         1 1YY      -0.732500
     12 S1          40.1880   -26.3190    14.2250 sy         1 1YY       1.228600
     13 O1          41.5690   -26.4290    14.6290 o          1 1YY      -0.540500
     14 O2          39.8610   -25.8380    12.9060 o          1 1YY      -0.540500
     15 C6          39.4520   -27.8910    14.4090 cc         1 1YY      -0.483500
     16 C7          38.3140   -28.3360    13.7840 cd         1 1YY       0.008000
     17 C8          37.9210   -29.6160    14.2470 cd         1 1YY      -0.157000
     18 C9          38.7570   -30.1050    15.2140 cc         1 1YY      -0.208000
     19 S2          40.0360   -29.0230    15.5750 ss         1 1YY       0.315000
     20 C1          39.7480   -25.4790    16.7220 c6         1 1YY       0.187800
     21 C4          39.4110   -24.1890    17.4520 c6         1 1YY       0.208800
     22 N2          38.0410   -23.7600    17.1880 nh         1 1YY      -0.802400
     23 C10         37.4610   -22.8310    18.0500 ca         1 1YY       0.328000
     24 C15         38.1280   -22.3640    19.1970 ca         1 1YY      -0.183000
     25 C14         37.5230   -21.4710    20.0710 ca         1 1YY      -0.036000
     26 C11         36.1610   -22.3340    17.8290 ca         1 1YY      -0.183000
     27 C12         35.5720   -21.4410    18.7080 ca         1 1YY      -0.036000
     28 C13         36.2390   -20.9840    19.8460 ca         1 1YY      -0.145300
     29 C16         35.5700   -20.0100    20.8030 c3         1 1YY       0.203300
     30 C23         34.7950   -20.8080    21.8820 c3         1 1YY       0.251000
     31 F2          34.1480   -19.9820    22.7380 f          1 1YY      -0.113667
     32 F3          35.6100   -21.5810    22.6300 f          1 1YY      -0.113667
     33 F1          33.8610   -21.6170    21.3490 f          1 1YY      -0.113667
     34 C17         36.5500   -19.0590    21.4890 c3         1 1YY      -0.125100
     35 O3          34.6000   -19.2730    20.0640 oh         1 1YY      -0.643000
     36 H1          36.2450   -20.5820    15.1220 hc         1 1YY       0.042700
     37 H2          36.5460   -19.8440    13.5440 hc         1 1YY       0.042700
     38 H3          34.9530   -20.5000    13.9290 hc         1 1YY       0.042700
     39 H4          35.8100   -22.7850    13.9880 h1         1 1YY       0.049700
     40 H5          35.0790   -21.8030    11.8060 h1         1 1YY       0.051700
     41 H6          36.2080   -23.1760    11.6820 h1         1 1YY       0.051700
     42 H7          38.4580   -22.7130    11.0350 h1         1 1YY       0.057200
     43 H8          38.9150   -21.0100    10.7810 h1         1 1YY       0.057200
     44 H9          39.7420   -21.9840    12.9590 h1         1 1YY       0.042700
     45 H10         38.7480   -20.5370    13.1630 h1         1 1YY       0.042700
     46 H12         39.3580   -22.6320    15.0360 h1         1 1YY       0.046700
     47 H13         38.0620   -21.6170    15.6480 h1         1 1YY       0.046700
     48 H14         36.5780   -23.6750    15.7140 h1         1 1YY       0.066700
     49 H15         37.8380   -24.9300    14.0190 h1         1 1YY       0.071700
     50 H16         37.4260   -25.8550    15.4860 h1         1 1YY       0.071700
     51 H17         37.7940   -27.7690    13.0260 ha         1 1YY       0.150000
     52 H18         37.0600   -30.1530    13.8750 ha         1 1YY       0.141000
     53 H19         38.6990   -31.0520    15.7290 h4         1 1YY       0.154000
     54 H20         39.1570   -26.3050    17.1320 h1         1 1YY       0.064200
     55 H21         40.8040   -25.6980    16.8530 h1         1 1YY       0.064200
     56 H22         39.5200   -24.3940    18.5150 h1         1 1YY       0.051200
     57 H23         40.1400   -23.4130    17.1840 h1         1 1YY       0.051200
     58 H24         39.1370   -22.6760    19.4140 ha         1 1YY       0.115000
     59 H25         38.0900   -21.1490    20.9340 ha         1 1YY       0.122500
     60 H26         35.5900   -22.6450    16.9680 ha         1 1YY       0.115000
     61 H27         34.5730   -21.0880    18.4960 ha         1 1YY       0.122500
     62 H28         36.0020   -18.3280    22.0840 hc         1 1YY       0.059700
     63 H29         37.2400   -19.5840    22.1460 hc         1 1YY       0.059700
     64 H30         37.1210   -18.5360    20.7240 hc         1 1YY       0.059700
     65 H31         34.2780   -18.5440    20.6110 ho         1 1YY       0.457000
@<TRIPOS>BOND
     1     1     2 1   
     2     1    36 1   
     3     1    37 1   
     4     1    38 1   
     5     2     3 1   
     6     2     7 1   
     7     2    39 1   
     8     3     4 1   
     9     3    40 1   
    10     3    41 1   
    11     4     5 1   
    12     5     6 1   
    13     5    42 1   
    14     5    43 1   
    15     6     7 1   
    16     6    44 1   
    17     6    45 1   
    18     7     8 1   
    19     8     9 1   
    20     8    46 1   
    21     8    47 1   
    22     9    10 1   
    23     9    22 1   
    24     9    48 1   
    25    10    11 1   
    26    10    49 1   
    27    10    50 1   
    28    11    12 1   
    29    11    20 1   
    30    12    13 2   
    31    12    14 2   
    32    12    15 1   
    33    15    16 2   
    34    15    19 1   
    35    16    17 1   
    36    16    51 1   
    37    17    18 2   
    38    17    52 1   
    39    18    19 1   
    40    18    53 1   
    41    20    21 1   
    42    20    54 1   
    43    20    55 1   
    44    21    22 1   
    45    21    56 1   
    46    21    57 1   
    47    22    23 1   
    48    23    24 ar  
    49    23    26 ar  
    50    24    25 ar  
    51    24    58 1   
    52    25    28 ar  
    53    25    59 1   
    54    26    27 ar  
    55    26    60 1   
    56    27    28 ar  
    57    27    61 1   
    58    28    29 1   
    59    29    30 1   
    60    29    34 1   
    61    29    35 1   
    62    30    31 1   
    63    30    32 1   
    64    30    33 1   
    65    34    62 1   
    66    34    63 1   
    67    34    64 1   
    68    35    65 1   
@<TRIPOS>SUBSTRUCTURE
     1 1YY         1 TEMP              0 ****  ****    0 ROOT
