@<TRIPOS>MOLECULE
1YY
   65    68     1     0     0
SMALL
No Charge or Current Charge


@<TRIPOS>ATOM
      1 C22         35.3520   -22.0070    14.3500 c3         1 1YY      -0.119100
      2 C21         36.0930   -23.2620    13.8010 c6         1 1YY       0.150500
      3 C20         35.6960   -23.5400    12.3130 c6         1 1YY       0.156600
      4 O4          36.2610   -22.5360    11.4330 os         1 1YY      -0.458000
      5 C19         37.7070   -22.4920    11.5010 c6         1 1YY       0.149600
      6 C18         38.1810   -22.2100    12.9580 c6         1 1YY       0.146800
      7 N3          37.5900   -23.1830    13.9290 n3         1 1YY      -0.742600
      8 C5          38.1210   -23.0190    15.3160 c3         1 1YY       0.153800
      9 C3          37.7120   -24.1160    16.3620 c6         1 1YY       0.224500
     10 C2          38.1300   -25.5420    15.8800 c6         1 1YY       0.192800
     11 N1          39.5980   -25.7810    15.9700 n3         1 1YY      -0.732500
     12 S1          40.1340   -27.2100    15.2380 sy         1 1YY       1.228600
     13 O1          39.6800   -28.3260    16.0730 o          1 1YY      -0.540500
     14 O2          41.5540   -26.9860    14.9460 o          1 1YY      -0.540500
     15 C6          39.3370   -27.3390    13.6600 cc         1 1YY      -0.483500
     16 C7          39.3600   -26.4030    12.6570 cd         1 1YY       0.008000
     17 C8          38.5810   -26.7830    11.5320 cd         1 1YY      -0.157000
     18 C9          37.9650   -28.0020    11.6810 cc         1 1YY      -0.208000
     19 S2          38.3380   -28.7160    13.2480 ss         1 1YY       0.315000
     20 C1          40.0700   -25.5650    17.3620 c6         1 1YY       0.187800
     21 C4          39.7110   -24.1420    17.8960 c6         1 1YY       0.208800
     22 N2          38.2590   -23.7930    17.7300 nh         1 1YY      -0.802400
     23 C10         37.6730   -22.7520    18.4850 ca         1 1YY       0.328000
     24 C15         38.4370   -21.6750    18.9700 ca         1 1YY      -0.183000
     25 C14         37.8370   -20.6410    19.7080 ca         1 1YY      -0.036000
     26 C11         36.2980   -22.7780    18.7620 ca         1 1YY      -0.183000
     27 C12         35.6910   -21.7490    19.5000 ca         1 1YY      -0.036000
     28 C13         36.4470   -20.6530    19.9760 ca         1 1YY      -0.145300
     29 C16         35.7650   -19.5360    20.8060 c3         1 1YY       0.203300
     30 C23         35.6920   -19.9550    22.3230 c3         1 1YY       0.251000
     31 F2          35.0770   -19.0060    23.0700 f          1 1YY      -0.113667
     32 F3          36.9300   -20.1420    22.8410 f          1 1YY      -0.113667
     33 F1          35.0040   -21.1100    22.4890 f          1 1YY      -0.113667
     34 C17         36.4740   -18.1640    20.6390 c3         1 1YY      -0.125100
     35 O3          34.4330   -19.3360    20.2940 oh         1 1YY      -0.643000
     36 H1          35.5380   -21.8640    15.4210 hc         1 1YY       0.042700
     37 H2          35.6540   -21.0920    13.8290 hc         1 1YY       0.042700
     38 H3          34.2680   -22.1120    14.2260 hc         1 1YY       0.042700
     39 H4          35.7250   -24.1200    14.3820 h1         1 1YY       0.049700
     40 H5          34.6020   -23.5400    12.2050 h1         1 1YY       0.051700
     41 H6          36.0650   -24.5310    12.0100 h1         1 1YY       0.051700
     42 H7          38.1140   -23.4540    11.1570 h1         1 1YY       0.057200
     43 H8          38.0770   -21.7050    10.8280 h1         1 1YY       0.057200
     44 H9          39.2790   -22.2690    12.9830 h1         1 1YY       0.042700
     45 H10         37.9120   -21.1790    13.2290 h1         1 1YY       0.042700
     46 H12         39.2180   -23.0090    15.2760 h1         1 1YY       0.046700
     47 H13         37.8190   -22.0420    15.7170 h1         1 1YY       0.046700
     48 H14         36.6150   -24.1150    16.4100 h1         1 1YY       0.066700
     49 H15         37.7670   -25.6720    14.8510 h1         1 1YY       0.071700
     50 H16         37.5940   -26.2820    16.4920 h1         1 1YY       0.071700
     51 H17         39.9040   -25.4630    12.7210 ha         1 1YY       0.150000
     52 H18         38.4800   -26.1670    10.6450 ha         1 1YY       0.141000
     53 H19         37.3190   -28.5330    10.9950 h4         1 1YY       0.154000
     54 H20         39.6240   -26.3120    18.0360 h1         1 1YY       0.064200
     55 H21         41.1620   -25.6890    17.4250 h1         1 1YY       0.064200
     56 H22         39.9920   -24.0940    18.9580 h1         1 1YY       0.051200
     57 H23         40.3310   -23.4070    17.3620 h1         1 1YY       0.051200
     58 H24         39.5020   -21.6240    18.7700 ha         1 1YY       0.115000
     59 H25         38.4720   -19.8370    20.0700 ha         1 1YY       0.122500
     60 H26         35.6920   -23.6100    18.4160 ha         1 1YY       0.115000
     61 H27         34.6240   -21.8120    19.7040 ha         1 1YY       0.122500
     62 H28         35.8830   -17.3560    21.0870 hc         1 1YY       0.059700
     63 H29         37.4550   -18.1530    21.1270 hc         1 1YY       0.059700
     64 H30         36.6140   -17.9270    19.5770 hc         1 1YY       0.059700
     65 H31         33.9930   -18.6850    20.8810 ho         1 1YY       0.457000
@<TRIPOS>BOND
     1     1     2 1   
     2     1    36 1   
     3     1    37 1   
     4     1    38 1   
     5     2     3 1   
     6     2     7 1   
     7     2    39 1   
     8     3     4 1   
     9     3    40 1   
    10     3    41 1   
    11     4     5 1   
    12     5     6 1   
    13     5    42 1   
    14     5    43 1   
    15     6     7 1   
    16     6    44 1   
    17     6    45 1   
    18     7     8 1   
    19     8     9 1   
    20     8    46 1   
    21     8    47 1   
    22     9    10 1   
    23     9    22 1   
    24     9    48 1   
    25    10    11 1   
    26    10    49 1   
    27    10    50 1   
    28    11    12 1   
    29    11    20 1   
    30    12    13 2   
    31    12    14 2   
    32    12    15 1   
    33    15    16 2   
    34    15    19 1   
    35    16    17 1   
    36    16    51 1   
    37    17    18 2   
    38    17    52 1   
    39    18    19 1   
    40    18    53 1   
    41    20    21 1   
    42    20    54 1   
    43    20    55 1   
    44    21    22 1   
    45    21    56 1   
    46    21    57 1   
    47    22    23 1   
    48    23    24 ar  
    49    23    26 ar  
    50    24    25 ar  
    51    24    58 1   
    52    25    28 ar  
    53    25    59 1   
    54    26    27 ar  
    55    26    60 1   
    56    27    28 ar  
    57    27    61 1   
    58    28    29 1   
    59    29    30 1   
    60    29    34 1   
    61    29    35 1   
    62    30    31 1   
    63    30    32 1   
    64    30    33 1   
    65    34    62 1   
    66    34    63 1   
    67    34    64 1   
    68    35    65 1   
@<TRIPOS>SUBSTRUCTURE
     1 1YY         1 TEMP              0 ****  ****    0 ROOT
