@<TRIPOS>MOLECULE
1YZ
   42    44     1     0     0
SMALL
No Charge or Current Charge


@<TRIPOS>ATOM
      1 N1           0.6560     0.7570    -0.8690 na         1 1YZ       0.246000
      2 N2           1.1280     0.0580    -1.9560 nc         1 1YZ      -0.493800
      3 C1           2.1730    -0.5840    -1.4310 cd         1 1YZ       0.138500
      4 C2           2.3300    -0.2740    -0.0480 cd         1 1YZ       0.023600
      5 C3           1.3470     0.5990     0.3190 cc         1 1YZ      -0.194000
      6 N3           3.3310    -0.7950     0.7590 ns         1 1YZ      -0.397100
      7 C4           3.5720    -0.5640     2.0900 c          1 1YZ       0.656100
      8 N4           4.6320    -1.2340     2.5690 nt         1 1YZ      -0.606000
      9 O1           2.9150     0.1670     2.8070 o          1 1YZ      -0.644100
     10 C5           3.0580    -1.5120    -2.2200 c          1 1YZ       0.549600
     11 N5           2.7330    -1.6690    -3.5250 nt         1 1YZ      -0.585000
     12 O2           4.0210    -2.1120    -1.7620 o          1 1YZ      -0.646100
     13 C6          -0.4640     1.5770    -0.9990 ca         1 1YZ       0.000800
     14 C7          -0.3230     2.8090    -1.6690 ca         1 1YZ      -0.084000
     15 C8          -1.4180     3.6750    -1.8090 ca         1 1YZ      -0.120000
     16 C9          -2.6670     3.3180    -1.2800 ca         1 1YZ      -0.071000
     17 C10         -1.7280     1.2080    -0.4660 ca         1 1YZ       0.020000
     18 C11         -2.8270     2.0900    -0.6110 ca         1 1YZ      -0.072000
     19 C12         -4.0860     1.7430    -0.0880 ca         1 1YZ      -0.062000
     20 C13         -4.2660     0.5200     0.5780 ca         1 1YZ      -0.176000
     21 C14         -3.1810    -0.3680     0.7230 ca         1 1YZ       0.154100
     22 C15         -1.9250    -0.0230     0.2030 ca         1 1YZ      -0.145000
     23 O3          -3.2980    -1.5850     1.3630 os         1 1YZ      -0.348100
     24 C16         -4.5390    -2.0350     1.9320 c3         1 1YZ       0.166600
     25 C17         -4.2890    -3.4180     2.5540 c3         1 1YZ      -0.095100
     26 H1           1.0870     1.0900     1.2470 h4         1 1YZ       0.191000
     27 H2           3.9870    -1.4360     0.3270 hn         1 1YZ       0.354500
     28 H4           5.1760    -1.8400     1.9750 hn         1 1YZ       0.314000
     29 H3           4.8780    -1.1210     3.5400 hn         1 1YZ       0.314000
     30 H5           1.9370    -1.1720    -3.8990 hn         1 1YZ       0.325500
     31 H6           3.2870    -2.2770    -4.1090 hn         1 1YZ       0.325500
     32 H7           0.6430     3.0950    -2.0790 ha         1 1YZ       0.130000
     33 H8          -1.2990     4.6240    -2.3270 ha         1 1YZ       0.122000
     34 H9          -3.5110     3.9960    -1.3920 ha         1 1YZ       0.117000
     35 H10         -4.9300     2.4220    -0.1980 ha         1 1YZ       0.115000
     36 H11         -5.2500     0.2810     0.9700 ha         1 1YZ       0.119000
     37 H12         -1.1100    -0.7310     0.3240 ha         1 1YZ       0.144000
     38 H14         -4.8860    -1.3430     2.7100 h1         1 1YZ       0.033700
     39 H13         -5.3150    -2.1180     1.1600 h1         1 1YZ       0.033700
     40 H16         -5.2110    -3.8040     3.0030 hc         1 1YZ       0.048700
     41 H17         -3.9530    -4.1300     1.7910 hc         1 1YZ       0.048700
     42 H15         -3.5250    -3.3560     3.3380 hc         1 1YZ       0.048700
@<TRIPOS>BOND
     1     1     2 1   
     2     1     5 1   
     3     1    13 1   
     4     2     3 2   
     5     3     4 1   
     6     3    10 1   
     7     4     5 2   
     8     4     6 1   
     9     5    26 1   
    10     6     7 1   
    11     6    27 1   
    12     7     8 1   
    13     7     9 2   
    14     8    28 1   
    15     8    29 1   
    16    10    11 1   
    17    10    12 2   
    18    11    30 1   
    19    11    31 1   
    20    13    14 ar  
    21    13    17 ar  
    22    14    15 ar  
    23    14    32 1   
    24    15    16 ar  
    25    15    33 1   
    26    16    18 ar  
    27    16    34 1   
    28    17    18 ar  
    29    17    22 ar  
    30    18    19 ar  
    31    19    20 ar  
    32    19    35 1   
    33    20    21 ar  
    34    20    36 1   
    35    21    22 ar  
    36    21    23 1   
    37    22    37 1   
    38    23    24 1   
    39    24    25 1   
    40    24    38 1   
    41    24    39 1   
    42    25    40 1   
    43    25    41 1   
    44    25    42 1   
@<TRIPOS>SUBSTRUCTURE
     1 1YZ         1 TEMP              0 ****  ****    0 ROOT
