@<TRIPOS>MOLECULE
1YZ
   42    44     1     0     0
SMALL
bcc


@<TRIPOS>ATOM
      1 N1           0.6880     0.7470    -0.5150 na         1 1YZ       0.195300
      2 N2           0.7740    -0.3380    -1.2530 nc         1 1YZ      -0.493800
      3 C1           1.9290    -0.8990    -0.9270 cd         1 1YZ       0.203800
      4 C2           2.6060    -0.1360     0.0520 cd         1 1YZ      -0.041700
      5 C3           1.7660     0.9280     0.2950 cc         1 1YZ      -0.161300
      6 N3           3.8340    -0.4580     0.5940 ns         1 1YZ      -0.464100
      7 C4           4.4470     0.2400     1.5970 c          1 1YZ       0.790100
      8 N4           5.6220    -0.2940     2.0060 nt         1 1YZ      -0.673000
      9 O1           3.9530     1.2420     2.0970 o          1 1YZ      -0.644100
     10 C5           2.3900    -2.1560    -1.5440 c          1 1YZ       0.616600
     11 N5           1.5560    -2.7150    -2.4250 nt         1 1YZ      -0.652000
     12 O2           3.4820    -2.6330    -1.2390 o          1 1YZ      -0.646100
     13 C6          -0.4130     1.6300    -0.6320 ca         1 1YZ       0.000800
     14 C7          -0.1770     2.9190    -1.0240 ca         1 1YZ      -0.102000
     15 C8          -1.2360     3.8410    -1.1260 ca         1 1YZ      -0.138000
     16 C9          -2.5120     3.4440    -0.8410 ca         1 1YZ      -0.089000
     17 C10         -1.7230     1.1780    -0.3090 ca         1 1YZ       0.020000
     18 C11         -2.7820     2.1190    -0.4280 ca         1 1YZ      -0.072000
     19 C12         -4.0900     1.7000    -0.1040 ca         1 1YZ      -0.080000
     20 C13         -4.3500     0.4300     0.3270 ca         1 1YZ      -0.194000
     21 C14         -3.2920    -0.5000     0.4550 ca         1 1YZ       0.154100
     22 C15         -2.0040    -0.1260     0.1390 ca         1 1YZ      -0.163000
     23 O3          -3.4660    -1.7640     0.8750 os         1 1YZ      -0.324900
     24 C16         -4.7650    -2.2100     1.2500 c3         1 1YZ       0.143400
     25 C17         -4.6540    -3.6570     1.6680 c3         1 1YZ      -0.095100
     26 H1           1.8280     1.7660     0.9640 h4         1 1YZ       0.209000
     27 H2           4.2510    -1.3030     0.2280 hn         1 1YZ       0.354500
     28 H4           6.1070    -0.9810     1.4540 hn         1 1YZ       0.314000
     29 H3           6.1940     0.2560     2.6240 hn         1 1YZ       0.314000
     30 H5           0.6650    -2.3010    -2.6400 hn         1 1YZ       0.325500
     31 H6           1.7980    -3.5820    -2.8760 hn         1 1YZ       0.325500
     32 H7           0.8320     3.2290    -1.2650 ha         1 1YZ       0.148000
     33 H8          -1.0290     4.8560    -1.4370 ha         1 1YZ       0.140000
     34 H9          -3.3340     4.1440    -0.9200 ha         1 1YZ       0.135000
     35 H10         -4.9030     2.4090    -0.1950 ha         1 1YZ       0.133000
     36 H11         -5.3680     0.1560     0.5680 ha         1 1YZ       0.137000
     37 H12         -1.2140    -0.8580     0.2380 ha         1 1YZ       0.162000
     38 H14         -5.1490    -1.6020     2.0750 h1         1 1YZ       0.033700
     39 H13         -5.4590    -2.1090     0.4100 h1         1 1YZ       0.033700
     40 H16         -5.6350    -4.0230     1.9670 hc         1 1YZ       0.048700
     41 H17         -4.2990    -4.2820     0.8490 hc         1 1YZ       0.048700
     42 H15         -3.9790    -3.7760     2.5160 hc         1 1YZ       0.048700
@<TRIPOS>BOND
     1     1     2 1   
     2     1     5 1   
     3     1    13 1   
     4     2     3 2   
     5     3     4 1   
     6     3    10 1   
     7     4     5 2   
     8     4     6 1   
     9     5    26 1   
    10     6     7 1   
    11     6    27 1   
    12     7     8 1   
    13     7     9 2   
    14     8    28 1   
    15     8    29 1   
    16    10    11 1   
    17    10    12 2   
    18    11    30 1   
    19    11    31 1   
    20    13    14 ar  
    21    13    17 ar  
    22    14    15 ar  
    23    14    32 1   
    24    15    16 ar  
    25    15    33 1   
    26    16    18 ar  
    27    16    34 1   
    28    17    18 ar  
    29    17    22 ar  
    30    18    19 ar  
    31    19    20 ar  
    32    19    35 1   
    33    20    21 ar  
    34    20    36 1   
    35    21    22 ar  
    36    21    23 1   
    37    22    37 1   
    38    23    24 1   
    39    24    25 1   
    40    24    38 1   
    41    24    39 1   
    42    25    40 1   
    43    25    41 1   
    44    25    42 1   
@<TRIPOS>SUBSTRUCTURE
     1 1YZ         1 TEMP              0 ****  ****    0 ROOT
