@<TRIPOS>MOLECULE
1Z0
   76    79     1     0     0
SMALL
bcc


@<TRIPOS>ATOM
      1 N           -4.9190     1.2340    -0.7460 n7         1 1Z0      -0.805200
      2 C3          -4.8740    -0.1470    -0.3520 c3         1 1Z0       0.114500
      3 C           -3.6050    -0.5020     0.4330 c          1 1Z0       0.638100
      4 O           -3.0370     0.3500     1.1080 o          1 1Z0      -0.631100
      5 C8          -6.0920    -0.4940     0.5240 c3         1 1Z0      -0.026100
      6 C1          -7.3830    -0.3740    -0.2320 ca         1 1Z0      -0.066300
      7 C2          -7.8580    -1.4470    -0.9830 ca         1 1Z0      -0.116000
      8 C6          -8.1150     0.8090    -0.2240 ca         1 1Z0      -0.116000
      9 C7          -9.0360    -1.3410    -1.7110 ca         1 1Z0      -0.130500
     10 C5          -9.2960     0.9190    -0.9460 ca         1 1Z0      -0.130500
     11 C4          -9.7600    -0.1560    -1.6940 ca         1 1Z0      -0.131000
     12 C9          -3.9360     1.6040    -1.7440 c3         1 1Z0       0.145100
     13 N1          -3.1710    -1.7720     0.3940 n          1 1Z0      -0.458800
     14 CA          -1.9730    -2.1550     1.1170 c5         1 1Z0       0.024700
     15 C10         -0.7450    -1.5510     0.4400 c          1 1Z0       0.661100
     16 O1          -0.6790    -1.4380    -0.7720 o          1 1Z0      -0.598100
     17 CB          -1.9700    -3.6850     1.0140 c5         1 1Z0      -0.080400
     18 CG          -2.6770    -3.9580    -0.3090 c5         1 1Z0      -0.094400
     19 CD          -3.7490    -2.8760    -0.3690 c5         1 1Z0       0.110000
     20 N2           0.2470    -1.2040     1.2810 ns         1 1Z0      -0.552900
     21 CA1          1.4330    -0.5100     0.8510 c3         1 1Z0       0.018700
     22 CB1          1.3630     0.9970     1.1750 c3         1 1Z0      -0.081400
     23 CG1          0.1500     1.6380     0.5200 c3         1 1Z0      -0.099400
     24 CD1         -0.0690     3.0860     0.9310 c3         1 1Z0       0.224800
     25 NE          -1.3600     3.5140     0.4390 nu         1 1Z0      -0.842200
     26 CZ          -1.7880     4.8020     0.6190 c2         1 1Z0       0.781100
     27 NH1         -1.0030     5.6960     1.0910 n2         1 1Z0      -0.890100
     28 NH2         -3.1150     4.9820     0.2690 nv         1 1Z0      -0.952800
     29 N5           4.1190    -0.2500    -0.2540 nc         1 1Z0      -0.498100
     30 S5           5.4060    -1.3570     1.6960 ss         1 1Z0      -0.062100
     31 C12          3.9620    -0.8380     0.8810 cd         1 1Z0       0.243200
     32 C61          5.4450    -0.1610    -0.5750 ca         1 1Z0       0.049400
     33 C62          6.3190    -0.7140     0.3790 ca         1 1Z0      -0.053100
     34 C63          7.6980    -0.6970     0.2000 ca         1 1Z0      -0.088000
     35 C64          8.2090    -0.1210    -0.9510 ca         1 1Z0      -0.104600
     36 C65          7.3350     0.4290    -1.9070 ca         1 1Z0      -0.100000
     37 C66          5.9690     0.4170    -1.7350 ca         1 1Z0      -0.103000
     38 C11          9.7200    -0.0850    -1.1760 c          1 1Z0       0.922200
     39 O11         10.4240    -0.5750    -0.2740 o          1 1Z0      -0.813800
     40 O2          10.1080     0.4290    -2.2400 o          1 1Z0      -0.813800
     41 C13          2.6540    -1.1070     1.5160 c          1 1Z0       0.519800
     42 H           -4.8350     1.8250     0.0720 hn         1 1Z0       0.372800
     43 H3          -4.9210    -0.7500    -1.2640 h1         1 1Z0       0.075700
     44 H'C1        -5.9860    -1.5100     0.9120 hc         1 1Z0       0.054700
     45 H'C2        -6.0930     0.1710     1.3930 hc         1 1Z0       0.054700
     46 H2          -7.3030    -2.3790    -0.9960 ha         1 1Z0       0.127500
     47 H6          -7.7610     1.6520     0.3570 ha         1 1Z0       0.127500
     48 H7          -9.3900    -2.1860    -2.2880 ha         1 1Z0       0.126500
     49 H5          -9.8550     1.8460    -0.9270 ha         1 1Z0       0.126500
     50 H4         -10.6810    -0.0720    -2.2560 ha         1 1Z0       0.126000
     51 H1C1        -4.0410     2.6640    -1.9820 h1         1 1Z0       0.036700
     52 H1C2        -2.8910     1.4250    -1.4590 h1         1 1Z0       0.036700
     53 H1C3        -4.1240     1.0520    -2.6660 h1         1 1Z0       0.036700
     54 HA          -2.0310    -1.8290     2.1590 h1         1 1Z0       0.078700
     55 HB2         -0.9670    -4.1070     1.0660 hc         1 1Z0       0.060700
     56 HB3         -2.5430    -4.0960     1.8460 hc         1 1Z0       0.060700
     57 HG2         -1.9860    -3.8460    -1.1440 hc         1 1Z0       0.065200
     58 HG3         -3.1060    -4.9570    -0.3600 hc         1 1Z0       0.065200
     59 HD2         -4.6790    -3.2160     0.0960 h1         1 1Z0       0.045200
     60 HD3         -3.9730    -2.5850    -1.3950 h1         1 1Z0       0.045200
     61 H1           0.0760    -1.2620     2.2730 hn         1 1Z0       0.321500
     62 HA1          1.5280    -0.6300    -0.2290 h1         1 1Z0       0.122700
     63 HB1          1.3130     1.1250     2.2600 hc         1 1Z0       0.059200
     64 HB21         2.2830     1.4790     0.8380 hc         1 1Z0       0.059200
     65 HG1          0.2320     1.5690    -0.5680 hc         1 1Z0       0.057200
     66 HG21        -0.7390     1.0740     0.8040 hc         1 1Z0       0.057200
     67 HD1         -0.0010     3.1790     2.0230 h1         1 1Z0       0.049700
     68 HD21         0.7070     3.7300     0.5140 h1         1 1Z0       0.049700
     69 HE          -2.0800     2.8090     0.5080 hn         1 1Z0       0.424800
     70 HH11        -1.4460     6.6070     1.0740 hn         1 1Z0       0.368400
     71 HH21        -3.4320     4.4380    -0.5190 hn         1 1Z0       0.388300
     72 HH22        -3.4000     5.9450     0.1770 hn         1 1Z0       0.388300
     73 H63          8.3630    -1.1220     0.9390 ha         1 1Z0       0.164000
     74 H65          7.7550     0.8730    -2.7990 ha         1 1Z0       0.156000
     75 H66          5.3040     0.8430    -2.4760 ha         1 1Z0       0.130000
     76 O3           2.6080    -1.7510     2.5370 o          1 1Z0      -0.528100
@<TRIPOS>BOND
     1     1     2 1   
     2     1    12 1   
     3     1    42 1   
     4     2     3 1   
     5     2     5 1   
     6     2    43 1   
     7     3     4 2   
     8     3    13 1   
     9     5     6 1   
    10     5    44 1   
    11     5    45 1   
    12     6     7 ar  
    13     6     8 ar  
    14     7     9 ar  
    15     7    46 1   
    16     8    10 ar  
    17     8    47 1   
    18     9    11 ar  
    19     9    48 1   
    20    10    11 ar  
    21    10    49 1   
    22    11    50 1   
    23    12    51 1   
    24    12    52 1   
    25    12    53 1   
    26    13    14 1   
    27    13    19 1   
    28    14    15 1   
    29    14    17 1   
    30    14    54 1   
    31    15    16 2   
    32    15    20 1   
    33    17    18 1   
    34    17    55 1   
    35    17    56 1   
    36    18    19 1   
    37    18    57 1   
    38    18    58 1   
    39    19    59 1   
    40    19    60 1   
    41    20    21 1   
    42    20    61 1   
    43    21    22 1   
    44    21    41 1   
    45    21    62 1   
    46    22    23 1   
    47    22    63 1   
    48    22    64 1   
    49    23    24 1   
    50    23    65 1   
    51    23    66 1   
    52    24    25 1   
    53    24    67 1   
    54    24    68 1   
    55    25    26 1   
    56    25    69 1   
    57    26    27 2   
    58    26    28 1   
    59    27    70 1   
    60    28    71 1   
    61    28    72 1   
    62    29    31 2   
    63    29    32 1   
    64    30    31 1   
    65    30    33 1   
    66    31    41 1   
    67    32    33 ar  
    68    32    37 ar  
    69    33    34 ar  
    70    34    35 ar  
    71    34    73 1   
    72    35    36 ar  
    73    35    38 1   
    74    36    37 ar  
    75    36    74 1   
    76    37    75 1   
    77    38    39 1   
    78    38    40 1   
    79    41    76 2   
@<TRIPOS>SUBSTRUCTURE
     1 1Z0         1 TEMP              0 ****  ****    0 ROOT
