@<TRIPOS>MOLECULE
1Z0
   76    79     1     0     0
SMALL
No Charge or Current Charge


@<TRIPOS>ATOM
      1 N           -5.8910     1.2080    -0.8520 n7         1 1Z0      -0.860400
      2 C3          -5.5010    -0.1830    -0.4360 c3         1 1Z0       0.114500
      3 C           -4.1250    -0.2620     0.3300 c          1 1Z0       0.571100
      4 O           -3.6870     0.7020     0.9530 o          1 1Z0      -0.631100
      5 C8          -6.6290    -0.8120     0.4230 c3         1 1Z0      -0.026100
      6 C1          -7.8900    -1.1270    -0.3770 ca         1 1Z0      -0.066300
      7 C2          -7.9260    -2.2510    -1.2260 ca         1 1Z0      -0.098000
      8 C6          -9.0310    -0.3070    -0.2690 ca         1 1Z0      -0.098000
      9 C7          -9.0870    -2.5500    -1.9600 ca         1 1Z0      -0.112500
     10 C5         -10.1920    -0.6060    -1.0030 ca         1 1Z0      -0.112500
     11 C4         -10.2210    -1.7270    -1.8490 ca         1 1Z0      -0.113000
     12 C9          -5.0810     1.7970    -1.9390 c3         1 1Z0       0.145100
     13 N1          -3.3950    -1.4730     0.3100 n          1 1Z0      -0.391800
     14 CA          -2.1010    -1.6280     1.0310 c5         1 1Z0       0.024700
     15 C10         -0.8930    -0.9290     0.3280 c          1 1Z0       0.594100
     16 O1          -0.8470    -0.4820    -0.8110 o          1 1Z0      -0.598100
     17 CB          -1.9220    -3.1760     0.9920 c5         1 1Z0      -0.080400
     18 CG          -2.4980    -3.5370    -0.4000 c5         1 1Z0      -0.094400
     19 CD          -3.7910    -2.6830    -0.4490 c5         1 1Z0       0.110000
     20 N2           0.1670    -0.8560     1.2110 ns         1 1Z0      -0.485900
     21 CA1          1.4750    -0.2240     0.9190 c3         1 1Z0       0.018700
     22 CB1          1.5390     1.2370     1.4460 c3         1 1Z0      -0.081400
     23 CG1          0.4860     2.1890     0.8270 c3         1 1Z0      -0.099400
     24 CD1          0.6340     3.6430     1.3180 c3         1 1Z0       0.224800
     25 NE          -0.3850     4.5000     0.6970 nu         1 1Z0      -0.897400
     26 CZ          -0.4970     5.7970     0.9220 c2         1 1Z0       0.781100
     27 NH1          0.2170     6.4590     1.7000 n2         1 1Z0      -0.890100
     28 NH2         -1.5590     6.1910     0.2680 nv         1 1Z0      -1.063200
     29 N5           4.2360    -0.1580    -0.1850 nc         1 1Z0      -0.498100
     30 S5           5.3480    -1.9480     1.4960 ss         1 1Z0       0.064800
     31 C12          3.9900    -0.9750     0.8630 cd         1 1Z0       0.243200
     32 C61          5.5790    -0.3040    -0.5090 ca         1 1Z0       0.049400
     33 C62          6.3170    -1.1870     0.2510 ca         1 1Z0      -0.180000
     34 C63          7.6820    -1.4200     0.0200 ca         1 1Z0      -0.070000
     35 C64          8.3340    -0.7280    -1.0300 ca         1 1Z0      -0.104600
     36 C65          7.5760     0.1820    -1.8130 ca         1 1Z0      -0.082000
     37 C66          6.2060     0.3920    -1.5530 ca         1 1Z0      -0.085000
     38 C11          9.8110    -0.9540    -1.3100 c          1 1Z0       0.711600
     39 O11         10.4250    -1.7470    -0.6090 o          1 1Z0      -0.708500
     40 O2          10.3350    -0.3350    -2.2260 o          1 1Z0      -0.708500
     41 C13          2.6350    -1.0900     1.4960 c          1 1Z0       0.519800
     42 H           -5.7980     1.8140    -0.0250 hn         1 1Z0       0.428000
     43 H3          -5.3990    -0.8000    -1.3370 h1         1 1Z0       0.075700
     44 H'C1        -6.2610    -1.7380     0.8790 hc         1 1Z0       0.054700
     45 H'C2        -6.8580    -0.1450     1.2640 hc         1 1Z0       0.054700
     46 H2          -7.0540    -2.8950    -1.3160 ha         1 1Z0       0.109500
     47 H6          -9.0170     0.5650     0.3810 ha         1 1Z0       0.109500
     48 H7          -9.1080    -3.4190    -2.6140 ha         1 1Z0       0.108500
     49 H5         -11.0690     0.0320    -0.9170 ha         1 1Z0       0.108500
     50 H4         -11.1190    -1.9590    -2.4170 ha         1 1Z0       0.108000
     51 H1C1        -5.4370     2.8070    -2.1830 h1         1 1Z0       0.036700
     52 H1C2        -4.0240     1.8710    -1.6510 h1         1 1Z0       0.036700
     53 H1C3        -5.1460     1.1860    -2.8500 h1         1 1Z0       0.036700
     54 HA          -2.1670    -1.2570     2.0630 h1         1 1Z0       0.078700
     55 HB2         -0.8820    -3.4970     1.1180 hc         1 1Z0       0.060700
     56 HB3         -2.5040    -3.6550     1.7890 hc         1 1Z0       0.060700
     57 HG2         -1.8070    -3.2530    -1.2030 hc         1 1Z0       0.065200
     58 HG3         -2.7020    -4.6080    -0.5120 hc         1 1Z0       0.065200
     59 HD2         -4.6250    -3.1960     0.0470 h1         1 1Z0       0.045200
     60 HD3         -4.0780    -2.4620    -1.4850 h1         1 1Z0       0.045200
     61 H1           0.0350    -1.2790     2.1240 hn         1 1Z0       0.321500
     62 HA1          1.6170    -0.2050    -0.1700 h1         1 1Z0       0.122700
     63 HB1          1.4200     1.2290     2.5370 hc         1 1Z0       0.059200
     64 HB21         2.5380     1.6450     1.2440 hc         1 1Z0       0.059200
     65 HG1          0.5790     2.1670    -0.2660 hc         1 1Z0       0.057200
     66 HG21        -0.5200     1.8330     1.0760 hc         1 1Z0       0.057200
     67 HD1          0.5320     3.6680     2.4120 h1         1 1Z0       0.049700
     68 HD21         1.6380     4.0100     1.0630 h1         1 1Z0       0.049700
     69 HE          -1.2870     4.0750     0.5280 hn         1 1Z0       0.480000
     70 HH11        -0.1460     7.4170     1.7200 hn         1 1Z0       0.368400
     71 HH21        -1.5930     5.7750    -0.6520 hn         1 1Z0       0.443500
     72 HH22        -1.6780     7.1950     0.2600 hn         1 1Z0       0.443500
     73 H63          8.2260    -2.1260     0.6450 ha         1 1Z0       0.146000
     74 H65          8.0460     0.7300    -2.6260 ha         1 1Z0       0.138000
     75 H66          5.6370     1.0910    -2.1610 ha         1 1Z0       0.112000
     76 O3           2.4250    -1.8530     2.4400 o          1 1Z0      -0.528100
@<TRIPOS>BOND
     1     1     2 1   
     2     1    12 1   
     3     1    42 1   
     4     2     3 1   
     5     2     5 1   
     6     2    43 1   
     7     3     4 2   
     8     3    13 1   
     9     5     6 1   
    10     5    44 1   
    11     5    45 1   
    12     6     7 ar  
    13     6     8 ar  
    14     7     9 ar  
    15     7    46 1   
    16     8    10 ar  
    17     8    47 1   
    18     9    11 ar  
    19     9    48 1   
    20    10    11 ar  
    21    10    49 1   
    22    11    50 1   
    23    12    51 1   
    24    12    52 1   
    25    12    53 1   
    26    13    14 1   
    27    13    19 1   
    28    14    15 1   
    29    14    17 1   
    30    14    54 1   
    31    15    16 2   
    32    15    20 1   
    33    17    18 1   
    34    17    55 1   
    35    17    56 1   
    36    18    19 1   
    37    18    57 1   
    38    18    58 1   
    39    19    59 1   
    40    19    60 1   
    41    20    21 1   
    42    20    61 1   
    43    21    22 1   
    44    21    41 1   
    45    21    62 1   
    46    22    23 1   
    47    22    63 1   
    48    22    64 1   
    49    23    24 1   
    50    23    65 1   
    51    23    66 1   
    52    24    25 1   
    53    24    67 1   
    54    24    68 1   
    55    25    26 1   
    56    25    69 1   
    57    26    27 2   
    58    26    28 1   
    59    27    70 1   
    60    28    71 1   
    61    28    72 1   
    62    29    31 2   
    63    29    32 1   
    64    30    31 1   
    65    30    33 1   
    66    31    41 1   
    67    32    33 ar  
    68    32    37 ar  
    69    33    34 ar  
    70    34    35 ar  
    71    34    73 1   
    72    35    36 ar  
    73    35    38 1   
    74    36    37 ar  
    75    36    74 1   
    76    37    75 1   
    77    38    39 1   
    78    38    40 1   
    79    41    76 2   
@<TRIPOS>SUBSTRUCTURE
     1 1Z0         1 TEMP              0 ****  ****    0 ROOT
