@<TRIPOS>MOLECULE
1Z1
  104   104     1     0     0
SMALL
No Charge or Current Charge


@<TRIPOS>ATOM
      1 N           -3.9190    -1.2940    -1.8570 ns         1 1Z1      -0.501900
      2 CA          -4.7770    -0.8620    -2.9650 c3         1 1Z1       0.098000
      3 CB          -4.2480    -1.3000    -4.3560 c3         1 1Z1      -0.078700
      4 CG1         -5.0430    -0.5890    -5.4850 c3         1 1Z1      -0.072400
      5 CG2         -4.2450    -2.8420    -4.5170 c3         1 1Z1      -0.086100
      6 CD1         -4.4810    -0.8020    -6.9080 c3         1 1Z1      -0.088100
      7 N1          -1.5680    -1.7330     2.6540 ns         1 1Z1      -0.516900
      8 CA1         -2.6970    -2.6790     2.6080 c3         1 1Z1       0.075700
      9 CB1         -3.4010    -2.7400     3.9920 c3         1 1Z1      -0.089400
     10 CG          -2.4880    -3.1000     5.2000 c3         1 1Z1      -0.057700
     11 CD11        -3.2810    -3.0380     6.5250 c3         1 1Z1      -0.092100
     12 CD2         -1.7930    -4.4730     5.0410 c3         1 1Z1      -0.092100
     13 CH          -3.6950    -2.3470     1.4500 c3         1 1Z1       0.164300
     14 OH          -4.0930    -0.9710     1.5260 oh         1 1Z1      -0.648000
     15 CM          -3.1150    -2.6100     0.0440 c3         1 1Z1      -0.195400
     16 C           -4.1600    -2.3790    -1.0430 c          1 1Z1       0.609100
     17 O           -5.1170    -3.1240    -1.1980 o          1 1Z1      -0.605100
     18 N2           1.4190    -0.5450     0.8690 ns         1 1Z1      -0.482900
     19 CA2          0.6710    -0.7310     2.1350 c3         1 1Z1       0.042700
     20 C1          -0.3610    -1.9010     1.9990 c          1 1Z1       0.579100
     21 O1          -0.1210    -2.9210     1.3680 o          1 1Z1      -0.581100
     22 CB2          0.0950     0.6070     2.6910 c3         1 1Z1      -0.077400
     23 CG3          1.1400     1.7420     2.8130 c3         1 1Z1      -0.067400
     24 CD           0.5560     3.0340     3.4250 c3         1 1Z1      -0.098400
     25 CE           1.5960     4.1650     3.5430 c3         1 1Z1       0.113000
     26 NZ           1.0140     5.3740     4.1240 ns         1 1Z1      -0.458900
     27 C2           1.6800     6.5350     4.3740 cs         1 1Z1       0.475400
     28 S            3.3020     6.7690     4.0490 s          1 1Z1      -0.680400
     29 N3           0.8690     7.4830     4.9200 ns         1 1Z1      -0.456900
     30 CM1          1.2740     8.8360     5.3050 c3         1 1Z1       0.104300
     31 N4           1.5140    -0.6620    -2.7350 n7         1 1Z1      -0.856300
     32 CA3          1.8570     0.1180    -1.5070 c3         1 1Z1       0.140500
     33 O2          -0.3500     0.0500    -0.4470 o          1 1Z1      -0.602100
     34 CB3          1.8990     1.6270    -1.8510 c3         1 1Z1      -0.021100
     35 CG4          3.0460     1.9960    -2.7880 ca         1 1Z1      -0.079300
     36 CD12         2.8220     2.1310    -4.1720 ca         1 1Z1      -0.094500
     37 CD21         4.3400     2.2070    -2.2730 ca         1 1Z1      -0.094500
     38 CE1          3.8800     2.4730    -5.0320 ca         1 1Z1      -0.105500
     39 CE2          5.3990     2.5500    -3.1330 ca         1 1Z1      -0.105500
     40 CZ           5.1690     2.6830    -4.5130 ca         1 1Z1      -0.103000
     41 O11          2.5020    -2.6930    -3.9120 o          1 1Z1      -0.552000
     42 O21          2.0080    -2.7250    -1.3910 o          1 1Z1      -0.552000
     43 N5           0.0570    -2.5290    -3.0580 n3         1 1Z1      -0.785500
     44 C11         -0.3180    -2.4110    -4.4870 c3         1 1Z1       0.194600
     45 C21         -0.4850    -3.7640    -2.4560 c3         1 1Z1       0.194600
     46 HN1         -3.0860    -0.7550    -1.6540 hn         1 1Z1       0.305500
     47 HA1         -5.7950    -1.2450    -2.8190 h1         1 1Z1       0.056200
     48 HA2         -4.8320     0.2350    -2.9300 h1         1 1Z1       0.056200
     49 HB          -3.2090    -0.9550    -4.4260 hc         1 1Z1       0.039700
     50 HG11        -6.0890    -0.9210    -5.4610 hc         1 1Z1       0.040700
     51 HG12        -5.0540     0.4900    -5.2860 hc         1 1Z1       0.040700
     52 HG21        -3.6640    -3.3210    -3.7210 hc         1 1Z1       0.036700
     53 HG22        -5.2660    -3.2400    -4.4810 hc         1 1Z1       0.036700
     54 HG23        -3.7920    -3.1420    -5.4690 hc         1 1Z1       0.036700
     55 HD1         -4.5860    -1.8450    -7.2260 hc         1 1Z1       0.033033
     56 HD2         -5.0240    -0.1770    -7.6260 hc         1 1Z1       0.033033
     57 HD3         -3.4200    -0.5270    -6.9520 hc         1 1Z1       0.033033
     58 HN11        -1.6740    -0.8920     3.2070 hn         1 1Z1       0.309500
     59 HA          -2.3000    -3.6830     2.4050 h1         1 1Z1       0.087700
     60 HB1         -3.8730    -1.7690     4.1880 hc         1 1Z1       0.056700
     61 HB2         -4.2170    -3.4720     3.9380 hc         1 1Z1       0.056700
     62 HG          -1.6990    -2.3410     5.2720 hc         1 1Z1       0.034700
     63 HD11        -4.0880    -3.7810     6.5330 hc         1 1Z1       0.036700
     64 HD12        -2.6240    -3.2360     7.3810 hc         1 1Z1       0.036700
     65 HD13        -3.7270    -2.0460     6.6660 hc         1 1Z1       0.036700
     66 HD21        -2.5320    -5.2710     4.9000 hc         1 1Z1       0.036700
     67 HD22        -1.1120    -4.4750     4.1820 hc         1 1Z1       0.036700
     68 HD23        -1.1990    -4.7110     5.9310 hc         1 1Z1       0.036700
     69 HC          -4.5740    -2.9990     1.5710 h1         1 1Z1       0.102700
     70 HH          -3.2660    -0.4440     1.5210 ho         1 1Z1       0.431000
     71 HM1         -2.2510    -1.9600    -0.1270 hc         1 1Z1       0.070200
     72 HM2         -2.7960    -3.6570    -0.0060 hc         1 1Z1       0.070200
     73 H            2.4160    -0.7300     0.8670 hn         1 1Z1       0.322500
     74 HA3          1.3970    -1.0860     2.8780 h1         1 1Z1       0.060700
     75 HB21        -0.7290     0.9490     2.0530 hc         1 1Z1       0.055200
     76 HG2          1.9780     1.3960     3.4310 hc         1 1Z1       0.051200
     77 HG3          1.5490     1.9760     1.8220 hc         1 1Z1       0.051200
     78 HD24        -0.2820     3.3800     2.8070 hc         1 1Z1       0.043200
     79 HE2          2.4310     3.8330     4.1750 h1         1 1Z1       0.070700
     80 HE3          1.9930     4.4060     2.5470 h1         1 1Z1       0.070700
     81 HZ1          0.0310     5.3470     4.3630 hn         1 1Z1       0.297500
     82 HN          -0.1000     7.2270     5.0730 hn         1 1Z1       0.300500
     83 HM11         0.4110     9.3760     5.7170 h1         1 1Z1       0.053367
     84 HM21         2.0630     8.7840     6.0660 h1         1 1Z1       0.053367
     85 HM3          1.6500     9.3750     4.4260 h1         1 1Z1       0.053367
     86 H1           0.4960    -0.7210    -2.8080 hn         1 1Z1       0.499000
     87 HA4          2.8590    -0.1590    -1.1510 h1         1 1Z1       0.087700
     88 HB22         0.9370     1.9290    -2.2830 hc         1 1Z1       0.054200
     89 HB31         2.0000     2.1970    -0.9190 hc         1 1Z1       0.054200
     90 HD14         1.8290     1.9650    -4.5830 ha         1 1Z1       0.106500
     91 HD25         4.5280     2.1070    -1.2060 ha         1 1Z1       0.106500
     92 HE1          3.7010     2.5740    -6.1000 ha         1 1Z1       0.113000
     93 HE21         6.3960     2.7120    -2.7300 ha         1 1Z1       0.113000
     94 HZ           5.9880     2.9480    -5.1790 ha         1 1Z1       0.113000
     95 H11          0.1400    -3.2110    -5.0830 h1         1 1Z1       0.050033
     96 H12         -1.4050    -2.4840    -4.6090 h1         1 1Z1       0.050033
     97 H13         -0.0010    -1.4470    -4.9070 h1         1 1Z1       0.050033
     98 H21         -0.3410    -3.7700    -1.3670 h1         1 1Z1       0.050033
     99 H22         -1.5630    -3.8470    -2.6420 h1         1 1Z1       0.050033
    100 H23          0.0030    -4.6550    -2.8740 h1         1 1Z1       0.050033
    101 HB3         -0.3270     0.4260     3.6880 hc         1 1Z1       0.055200
    102 HD31         0.1530     2.8120     4.4210 hc         1 1Z1       0.043200
    103 C3           0.8570    -0.1250    -0.3240 c          1 1Z1       0.591100
    104 S1           1.7110    -2.2860    -2.7520 s6         1 1Z1       1.277200
@<TRIPOS>BOND
     1     1     2 1   
     2     1    16 1   
     3     1    46 1   
     4     2     3 1   
     5     2    47 1   
     6     2    48 1   
     7     3     4 1   
     8     3     5 1   
     9     3    49 1   
    10     4     6 1   
    11     4    50 1   
    12     4    51 1   
    13     5    52 1   
    14     5    53 1   
    15     5    54 1   
    16     6    55 1   
    17     6    56 1   
    18     6    57 1   
    19     7     8 1   
    20     7    20 1   
    21     7    58 1   
    22     8     9 1   
    23     8    13 1   
    24     8    59 1   
    25     9    10 1   
    26     9    60 1   
    27     9    61 1   
    28    10    11 1   
    29    10    12 1   
    30    10    62 1   
    31    11    63 1   
    32    11    64 1   
    33    11    65 1   
    34    12    66 1   
    35    12    67 1   
    36    12    68 1   
    37    13    14 1   
    38    13    15 1   
    39    13    69 1   
    40    14    70 1   
    41    15    16 1   
    42    15    71 1   
    43    15    72 1   
    44    16    17 2   
    45    18    19 1   
    46    18    73 1   
    47    18   103 1   
    48    19    20 1   
    49    19    22 1   
    50    19    74 1   
    51    20    21 2   
    52    22    23 1   
    53    22    75 1   
    54    22   101 1   
    55    23    24 1   
    56    23    76 1   
    57    23    77 1   
    58    24    25 1   
    59    24    78 1   
    60    24   102 1   
    61    25    26 1   
    62    25    79 1   
    63    25    80 1   
    64    26    27 1   
    65    26    81 1   
    66    27    28 2   
    67    27    29 1   
    68    29    30 1   
    69    29    82 1   
    70    30    83 1   
    71    30    84 1   
    72    30    85 1   
    73    31    32 1   
    74    31    86 1   
    75    31   104 1   
    76    32    34 1   
    77    32    87 1   
    78    32   103 1   
    79    33   103 2   
    80    34    35 1   
    81    34    88 1   
    82    34    89 1   
    83    35    36 ar  
    84    35    37 ar  
    85    36    38 ar  
    86    36    90 1   
    87    37    39 ar  
    88    37    91 1   
    89    38    40 ar  
    90    38    92 1   
    91    39    40 ar  
    92    39    93 1   
    93    40    94 1   
    94    41   104 2   
    95    42   104 2   
    96    43    44 1   
    97    43    45 1   
    98    43   104 1   
    99    44    95 1   
   100    44    96 1   
   101    44    97 1   
   102    45    98 1   
   103    45    99 1   
   104    45   100 1   
@<TRIPOS>SUBSTRUCTURE
     1 1Z1         1 TEMP              0 ****  ****    0 ROOT
