@<TRIPOS>MOLECULE
1Z1
  104   104     1     0     0
SMALL
bcc


@<TRIPOS>ATOM
      1 N           -5.2990    -0.8220    -1.0090 ns         1 1Z1      -0.568900
      2 CA          -6.5330    -0.3740    -1.6150 c3         1 1Z1       0.098000
      3 CB          -6.2950     0.5080    -2.8400 c3         1 1Z1      -0.078700
      4 CG1         -7.6470     1.0070    -3.3530 c3         1 1Z1      -0.072400
      5 CG2         -5.5060    -0.2340    -3.9120 c3         1 1Z1      -0.086100
      6 CD1         -7.5540     2.0600    -4.4490 c3         1 1Z1      -0.088100
      7 N1          -1.5720    -2.0020     2.1380 ns         1 1Z1      -0.583900
      8 CA1         -2.4740    -3.1390     2.1130 c3         1 1Z1       0.075700
      9 CB1         -2.6150    -3.7320     3.5120 c3         1 1Z1      -0.089400
     10 CG          -1.3050    -4.1920     4.1550 c3         1 1Z1      -0.057700
     11 CD11        -1.5820    -4.7290     5.5560 c3         1 1Z1      -0.092100
     12 CD2         -0.5740    -5.2330     3.3130 c3         1 1Z1      -0.092100
     13 CH          -3.8330    -2.7490     1.5170 c3         1 1Z1       0.141100
     14 OH          -4.4960    -1.7700     2.2880 oh         1 1Z1      -0.585800
     15 CM          -3.7190    -2.3060     0.0600 c3         1 1Z1      -0.195400
     16 C           -5.0920    -2.0540    -0.5240 c          1 1Z1       0.676100
     17 O           -5.9420    -2.9370    -0.5420 o          1 1Z1      -0.605100
     18 N2           1.5200    -0.6080     0.7920 ns         1 1Z1      -0.549900
     19 CA2          0.3070    -0.5870     1.5690 c3         1 1Z1       0.042700
     20 C1          -0.5410    -1.8350     1.2840 c          1 1Z1       0.646100
     21 O1          -0.2950    -2.5950     0.3680 o          1 1Z1      -0.581100
     22 CB2         -0.5230     0.6960     1.4240 c3         1 1Z1      -0.077400
     23 CG3          0.2820     1.9720     1.6260 c3         1 1Z1      -0.067400
     24 CD          -0.6130     3.2040     1.5850 c3         1 1Z1      -0.098400
     25 CE           0.1820     4.4870     1.7650 c3         1 1Z1       0.113000
     26 NZ          -0.6990     5.6310     1.6790 ns         1 1Z1      -0.525900
     27 C2          -0.3260     6.9000     1.8880 cs         1 1Z1       0.609400
     28 S            1.2510     7.3080     2.3250 s          1 1Z1      -0.680400
     29 N3          -1.2780     7.8280     1.7310 ns         1 1Z1      -0.523900
     30 CM1         -1.0720     9.2420     1.9270 c3         1 1Z1       0.104300
     31 N4           3.1110    -0.6240    -2.4660 n7         1 1Z1      -0.801100
     32 CA3          3.0680    -0.3800    -1.0410 c3         1 1Z1       0.140500
     33 O2           0.7230     0.0810    -1.2220 o          1 1Z1      -0.602100
     34 CB3          3.7680     0.9550    -0.7330 c3         1 1Z1      -0.021100
     35 CG4          5.2180     0.9340    -1.1200 ca         1 1Z1      -0.079300
     36 CD12         5.6550     1.5110    -2.3080 ca         1 1Z1      -0.112500
     37 CD21         6.1520     0.3080    -0.2980 ca         1 1Z1      -0.112500
     38 CE1          6.9960     1.4670    -2.6670 ca         1 1Z1      -0.123500
     39 CE2          7.4920     0.2590    -0.6530 ca         1 1Z1      -0.123500
     40 CZ           7.9190     0.8390    -1.8410 ca         1 1Z1      -0.121000
     41 O11          3.0250    -2.0850    -4.4450 o          1 1Z1      -0.622800
     42 O21          4.3280    -2.8050    -2.4240 o          1 1Z1      -0.622800
     43 N5           1.8430    -2.9130    -2.3220 n3         1 1Z1      -0.785500
     44 C11          0.5630    -2.6680    -2.9690 c3         1 1Z1       0.194600
     45 C21          1.9880    -4.2320    -1.7280 c3         1 1Z1       0.194600
     46 HN1         -4.5640    -0.1400    -0.9100 hn         1 1Z1       0.305500
     47 HA1         -7.1110    -1.2530    -1.9050 h1         1 1Z1       0.056200
     48 HA2         -7.1320     0.1750    -0.8810 h1         1 1Z1       0.056200
     49 HB          -5.7150     1.3840    -2.5200 hc         1 1Z1       0.039700
     50 HG11        -8.2300     0.1520    -3.7130 hc         1 1Z1       0.040700
     51 HG12        -8.2100     1.4240    -2.5130 hc         1 1Z1       0.040700
     52 HG21        -4.5280    -0.5500    -3.5480 hc         1 1Z1       0.036700
     53 HG22        -6.0450    -1.1280    -4.2360 hc         1 1Z1       0.036700
     54 HG23        -5.3390     0.3880    -4.7910 hc         1 1Z1       0.036700
     55 HD1         -7.0760     1.6750    -5.3500 hc         1 1Z1       0.033033
     56 HD2         -8.5460     2.4130    -4.7340 hc         1 1Z1       0.033033
     57 HD3         -6.9800     2.9260    -4.1150 hc         1 1Z1       0.033033
     58 HN11        -1.6220    -1.3940     2.9410 hn         1 1Z1       0.309500
     59 HA          -2.0380    -3.8870     1.4480 h1         1 1Z1       0.087700
     60 HB1         -3.0980    -3.0020     4.1700 hc         1 1Z1       0.056700
     61 HB2         -3.3010    -4.5840     3.4500 hc         1 1Z1       0.056700
     62 HG          -0.6480    -3.3210     4.2570 hc         1 1Z1       0.034700
     63 HD11        -2.2290    -5.6080     5.5180 hc         1 1Z1       0.036700
     64 HD12        -0.6580    -5.0220     6.0580 hc         1 1Z1       0.036700
     65 HD13        -2.0750    -3.9800     6.1790 hc         1 1Z1       0.036700
     66 HD21        -1.2010    -6.1120     3.1430 hc         1 1Z1       0.036700
     67 HD22        -0.2760    -4.8430     2.3390 hc         1 1Z1       0.036700
     68 HD23         0.3340    -5.5670     3.8180 hc         1 1Z1       0.036700
     69 HC          -4.4690    -3.6380     1.5560 h1         1 1Z1       0.102700
     70 HH          -3.9920    -0.9500     2.2430 ho         1 1Z1       0.392000
     71 HM1         -3.0740    -1.4270    -0.0230 hc         1 1Z1       0.070200
     72 HM2         -3.2420    -3.0960    -0.5250 hc         1 1Z1       0.070200
     73 H            2.3240    -1.0130     1.2450 hn         1 1Z1       0.322500
     74 HA3          0.6320    -0.6440     2.6120 h1         1 1Z1       0.060700
     75 HB21        -1.0220     0.7190     0.4550 hc         1 1Z1       0.055200
     76 HG2          0.8070     1.9300     2.5860 hc         1 1Z1       0.051200
     77 HG3          1.0500     2.0660     0.8540 hc         1 1Z1       0.051200
     78 HD24        -1.1440     3.2320     0.6270 hc         1 1Z1       0.043200
     79 HE2          0.6860     4.4850     2.7340 h1         1 1Z1       0.070700
     80 HE3          0.9650     4.5540     1.0030 h1         1 1Z1       0.070700
     81 HZ1         -1.6470     5.4530     1.3840 hn         1 1Z1       0.297500
     82 HN          -2.2080     7.5300     1.4790 hn         1 1Z1       0.300500
     83 HM11        -2.0050     9.7500     1.6960 h1         1 1Z1       0.053367
     84 HM21        -0.7920     9.4720     2.9550 h1         1 1Z1       0.053367
     85 HM3         -0.2920     9.6280     1.2700 h1         1 1Z1       0.053367
     86 H1           2.5010    -0.0260    -3.0120 hn         1 1Z1       0.443800
     87 HA4          3.6220    -1.1780    -0.5400 h1         1 1Z1       0.087700
     88 HB22         3.2430     1.7600    -1.2540 hc         1 1Z1       0.054200
     89 HB31         3.6700     1.1580     0.3360 hc         1 1Z1       0.054200
     90 HD14         4.9430     2.0070    -2.9570 ha         1 1Z1       0.124500
     91 HD25         5.8290    -0.1410     0.6350 ha         1 1Z1       0.124500
     92 HE1          7.3200     1.9240    -3.5930 ha         1 1Z1       0.131000
     93 HE21         8.2050    -0.2280     0.0000 ha         1 1Z1       0.131000
     94 HZ           8.9640     0.8050    -2.1190 ha         1 1Z1       0.131000
     95 H11          0.3810    -3.3620    -3.7930 h1         1 1Z1       0.050033
     96 H12         -0.2170    -2.7810    -2.2200 h1         1 1Z1       0.050033
     97 H13          0.4990    -1.6510    -3.3480 h1         1 1Z1       0.050033
     98 H21          2.9000    -4.2980    -1.1440 h1         1 1Z1       0.050033
     99 H22          1.1490    -4.3740    -1.0490 h1         1 1Z1       0.050033
    100 H23          1.9790    -5.0350    -2.4700 h1         1 1Z1       0.050033
    101 HB3         -1.3150     0.6660     2.1780 hc         1 1Z1       0.055200
    102 HD31        -1.3760     3.1330     2.3660 hc         1 1Z1       0.043200
    103 C3           1.6310    -0.3160    -0.5130 c          1 1Z1       0.658100
    104 S1           3.1530    -2.1790    -2.9990 s6         1 1Z1       1.418800
@<TRIPOS>BOND
     1     1     2 1   
     2     1    16 1   
     3     1    46 1   
     4     2     3 1   
     5     2    47 1   
     6     2    48 1   
     7     3     4 1   
     8     3     5 1   
     9     3    49 1   
    10     4     6 1   
    11     4    50 1   
    12     4    51 1   
    13     5    52 1   
    14     5    53 1   
    15     5    54 1   
    16     6    55 1   
    17     6    56 1   
    18     6    57 1   
    19     7     8 1   
    20     7    20 1   
    21     7    58 1   
    22     8     9 1   
    23     8    13 1   
    24     8    59 1   
    25     9    10 1   
    26     9    60 1   
    27     9    61 1   
    28    10    11 1   
    29    10    12 1   
    30    10    62 1   
    31    11    63 1   
    32    11    64 1   
    33    11    65 1   
    34    12    66 1   
    35    12    67 1   
    36    12    68 1   
    37    13    14 1   
    38    13    15 1   
    39    13    69 1   
    40    14    70 1   
    41    15    16 1   
    42    15    71 1   
    43    15    72 1   
    44    16    17 2   
    45    18    19 1   
    46    18    73 1   
    47    18   103 1   
    48    19    20 1   
    49    19    22 1   
    50    19    74 1   
    51    20    21 2   
    52    22    23 1   
    53    22    75 1   
    54    22   101 1   
    55    23    24 1   
    56    23    76 1   
    57    23    77 1   
    58    24    25 1   
    59    24    78 1   
    60    24   102 1   
    61    25    26 1   
    62    25    79 1   
    63    25    80 1   
    64    26    27 1   
    65    26    81 1   
    66    27    28 2   
    67    27    29 1   
    68    29    30 1   
    69    29    82 1   
    70    30    83 1   
    71    30    84 1   
    72    30    85 1   
    73    31    32 1   
    74    31    86 1   
    75    31   104 1   
    76    32    34 1   
    77    32    87 1   
    78    32   103 1   
    79    33   103 2   
    80    34    35 1   
    81    34    88 1   
    82    34    89 1   
    83    35    36 ar  
    84    35    37 ar  
    85    36    38 ar  
    86    36    90 1   
    87    37    39 ar  
    88    37    91 1   
    89    38    40 ar  
    90    38    92 1   
    91    39    40 ar  
    92    39    93 1   
    93    40    94 1   
    94    41   104 2   
    95    42   104 2   
    96    43    44 1   
    97    43    45 1   
    98    43   104 1   
    99    44    95 1   
   100    44    96 1   
   101    44    97 1   
   102    45    98 1   
   103    45    99 1   
   104    45   100 1   
@<TRIPOS>SUBSTRUCTURE
     1 1Z1         1 TEMP              0 ****  ****    0 ROOT
