@<TRIPOS>MOLECULE
1Z6
   22    23     1     0     0
SMALL
abcg2


@<TRIPOS>ATOM
      1 C1           2.0100     2.1730    -0.4870 c3         1 1Z6      -0.122400
      2 C2           2.2290     0.7300    -0.1860 cc         1 1Z6       0.273300
      3 N4           3.3010    -1.0570     0.1480 na         1 1Z6       0.000800
      4 C6           2.0190    -1.4250     0.2450 cd         1 1Z6      -0.157000
      5 C7           1.2650    -0.2870     0.0350 cc         1 1Z6      -0.159000
      6 C8          -0.1960    -0.1990     0.0250 ca         1 1Z6       0.001000
      7 C10         -2.2510     1.0030     0.5010 ca         1 1Z6      -0.149500
      8 C11         -2.9720    -0.0690     0.0140 ca         1 1Z6       0.165000
      9 C13         -2.3510    -1.2060    -0.4660 ca         1 1Z6      -0.149500
     10 C14         -0.9660    -1.2590    -0.4620 ca         1 1Z6      -0.083000
     11 N3           3.4530     0.2360    -0.1160 nd         1 1Z6      -0.525800
     12 C9          -0.8650     0.9270     0.5070 ca         1 1Z6      -0.083000
     13 F12         -4.3140    -0.0040     0.0060 f          1 1Z6      -0.181000
     14 H1           1.7340     2.7380     0.4050 hc         1 1Z6       0.049033
     15 H2           2.9180     2.6200    -0.8890 hc         1 1Z6       0.049033
     16 H3           1.2110     2.3110    -1.2160 hc         1 1Z6       0.049033
     17 H4           4.1110    -1.6460     0.2600 hn         1 1Z6       0.374000
     18 H5           1.7320    -2.4410     0.4650 h4         1 1Z6       0.155000
     19 H6          -2.7560     1.8810     0.8810 ha         1 1Z6       0.130500
     20 H7          -2.9350    -2.0340    -0.8470 ha         1 1Z6       0.130500
     21 H8          -0.4790    -2.1400    -0.8600 ha         1 1Z6       0.116000
     22 H9          -0.3070     1.7580     0.9160 ha         1 1Z6       0.116000
@<TRIPOS>BOND
     1     1     2 1   
     2     1    14 1   
     3     1    15 1   
     4     1    16 1   
     5     2     5 1   
     6     2    11 2   
     7     3     4 1   
     8     3    11 1   
     9     3    17 1   
    10     4     5 2   
    11     4    18 1   
    12     5     6 1   
    13     6    10 ar  
    14     6    12 ar  
    15     7     8 ar  
    16     7    12 ar  
    17     7    19 1   
    18     8     9 ar  
    19     8    13 1   
    20     9    10 ar  
    21     9    20 1   
    22    10    21 1   
    23    12    22 1   
@<TRIPOS>SUBSTRUCTURE
     1 1Z6         1 TEMP              0 ****  ****    0 ROOT
