@<TRIPOS>MOLECULE
1Z6
   22    23     1     0     0
SMALL
No Charge or Current Charge


@<TRIPOS>ATOM
      1 C1           2.0740     2.2370    -0.2980 c3         1 1Z6      -0.122400
      2 C2           2.3050     0.7600    -0.1300 cc         1 1Z6       0.273300
      3 N4           3.3070    -1.1040     0.0420 na         1 1Z6       0.000800
      4 C6           1.9470    -1.4300     0.0440 cd         1 1Z6      -0.157000
      5 C7           1.2930    -0.2350    -0.0850 cc         1 1Z6      -0.159000
      6 C8          -0.1850    -0.1780    -0.0400 ca         1 1Z6       0.001000
      7 C10         -2.2850     1.0450     0.3180 ca         1 1Z6      -0.149500
      8 C11         -3.0200    -0.1130     0.0390 ca         1 1Z6       0.165000
      9 C13         -2.3570    -1.3050    -0.2740 ca         1 1Z6      -0.149500
     10 C14         -0.9520    -1.3380    -0.3100 ca         1 1Z6      -0.083000
     11 N3           3.5270     0.2660    -0.0670 nd         1 1Z6      -0.525800
     12 C9          -0.8790     1.0130     0.2800 ca         1 1Z6      -0.083000
     13 F12         -4.3700    -0.0810     0.0760 f          1 1Z6      -0.181000
     14 H1           1.7970     2.7000     0.6560 hc         1 1Z6       0.049033
     15 H2           2.9810     2.7390    -0.6560 hc         1 1Z6       0.049033
     16 H3           1.2850     2.4320    -1.0330 hc         1 1Z6       0.049033
     17 H4           4.0830    -1.7630     0.1190 hn         1 1Z6       0.374000
     18 H5           1.5910    -2.4470     0.1580 h4         1 1Z6       0.155000
     19 H6          -2.8040     1.9660     0.5710 ha         1 1Z6       0.130500
     20 H7          -2.9310    -2.2020    -0.4920 ha         1 1Z6       0.130500
     21 H8          -0.4690    -2.2750    -0.5750 ha         1 1Z6       0.116000
     22 H9          -0.3480     1.9220     0.5350 ha         1 1Z6       0.116000
@<TRIPOS>BOND
     1     1     2 1   
     2     1    14 1   
     3     1    15 1   
     4     1    16 1   
     5     2     5 1   
     6     2    11 2   
     7     3     4 1   
     8     3    11 1   
     9     3    17 1   
    10     4     5 2   
    11     4    18 1   
    12     5     6 1   
    13     6    10 ar  
    14     6    12 ar  
    15     7     8 ar  
    16     7    12 ar  
    17     7    19 1   
    18     8     9 ar  
    19     8    13 1   
    20     9    10 ar  
    21     9    20 1   
    22    10    21 1   
    23    12    22 1   
@<TRIPOS>SUBSTRUCTURE
     1 1Z6         1 TEMP              0 ****  ****    0 ROOT
