@<TRIPOS>MOLECULE
1Z7
   91    91     1     0     0
SMALL
bcc


@<TRIPOS>ATOM
      1 CA          -8.6360     0.4470     1.3180 c3         1 1Z7      -0.155400
      2 CB          -9.9310    -0.0900     0.7060 c3         1 1Z7      -0.052700
      3 CG1        -11.1290     0.6370     1.3060 c3         1 1Z7      -0.089600
      4 CG2         -9.9260     0.0350    -0.8140 c3         1 1Z7      -0.089600
      5 C           -7.4120    -0.3210     0.8700 c          1 1Z7       0.670100
      6 O           -7.3490    -1.5400     0.9550 o          1 1Z7      -0.617100
      7 N           -6.4130     0.4380     0.3800 ns         1 1Z7      -0.553900
      8 CA1         -5.1370    -0.0720    -0.0420 c3         1 1Z7       0.024700
      9 C1          -4.0180     0.6860     0.6690 c          1 1Z7       0.658100
     10 O1          -4.1860     1.7940     1.1550 o          1 1Z7      -0.631100
     11 CB1         -4.9480    -0.0040    -1.5750 c3         1 1Z7      -0.071700
     12 CG11        -5.9270    -0.9380    -2.2760 c3         1 1Z7      -0.086600
     13 CG21        -5.0730     1.4180    -2.1150 c3         1 1Z7      -0.086600
     14 N1          -2.8480     0.0290     0.6740 ns         1 1Z7      -0.539900
     15 CA2         -1.5950     0.5830     1.1150 c3         1 1Z7       0.022700
     16 C2          -0.5380     0.2960     0.0470 c          1 1Z7       0.657100
     17 O2          -0.7360    -0.5110    -0.8510 o          1 1Z7      -0.627100
     18 CB2         -1.1580     0.0340     2.4930 c3         1 1Z7      -0.067700
     19 CG12        -2.1890     0.3760     3.5610 c3         1 1Z7      -0.093100
     20 CG22        -0.8780    -1.4640     2.4580 c3         1 1Z7      -0.093100
     21 CA3          1.8220     0.7530    -0.5460 c3         1 1Z7      -0.069500
     22 CB3          2.4590     2.0720    -0.9640 c3         1 1Z7      -0.060400
     23 CG           1.5650     2.9800    -1.8100 c3         1 1Z7      -0.056700
     24 CD1          2.3130     4.2670    -2.1430 c3         1 1Z7      -0.084100
     25 CD2          1.0870     2.2960    -3.0860 c3         1 1Z7      -0.084100
     26 N2           0.5970     0.9880     0.1990 ns         1 1Z7      -0.533900
     27 P            2.8810    -0.2930     0.5460 p5         1 1Z7       1.215600
     28 O11          3.2620     0.4780     1.7840 o          1 1Z7      -0.804500
     29 O21          2.2630    -1.6570     0.6730 o          1 1Z7      -0.804500
     30 CA4          5.4640    -0.5050     0.2280 c3         1 1Z7       0.171100
     31 CB4          6.5140    -0.9630    -0.7900 c3         1 1Z7      -0.034100
     32 CG3          6.1990    -2.3290    -1.3290 ca         1 1Z7      -0.056300
     33 CD11         5.4540    -2.4840    -2.4950 ca         1 1Z7      -0.109500
     34 CD21         6.6210    -3.4700    -0.6510 ca         1 1Z7      -0.109500
     35 CE1          5.1450    -3.7490    -2.9770 ca         1 1Z7      -0.132500
     36 CE2          6.3090    -4.7370    -1.1250 ca         1 1Z7      -0.132500
     37 CZ           5.5700    -4.8800    -2.2920 ca         1 1Z7      -0.135000
     38 C3           5.8930     0.8410     0.7930 c          1 1Z7       0.633100
     39 CS           7.1040     1.8770     2.5200 c3         1 1Z7       0.133700
     40 OP           4.2300    -0.4020    -0.4190 os         1 1Z7      -0.544200
     41 HA1         -8.5380     1.5120     1.0900 hc         1 1Z7       0.057200
     42 HA2         -8.6890     0.3650     2.4080 hc         1 1Z7       0.057200
     43 HB         -10.0130    -1.1500     0.9640 hc         1 1Z7       0.066700
     44 HG11       -11.0910     1.7060     1.0860 hc         1 1Z7       0.032200
     45 HG12       -12.0650     0.2490     0.9010 hc         1 1Z7       0.032200
     46 HG13       -11.1620     0.5230     2.3910 hc         1 1Z7       0.032200
     47 HG21        -9.1200    -0.5410    -1.2720 hc         1 1Z7       0.032200
     48 HG22       -10.8640    -0.3280    -1.2380 hc         1 1Z7       0.032200
     49 HG23        -9.8060     1.0770    -1.1220 hc         1 1Z7       0.032200
     50 H           -6.5260     1.4390     0.3990 hn         1 1Z7       0.325500
     51 HA          -5.0880    -1.1230     0.2560 h1         1 1Z7       0.094700
     52 HB1         -3.9340    -0.3610    -1.7830 hc         1 1Z7       0.071700
     53 HG14        -6.9600    -0.6380    -2.0900 hc         1 1Z7       0.034700
     54 HG15        -5.7680    -0.9160    -3.3540 hc         1 1Z7       0.034700
     55 HG16        -5.8100    -1.9690    -1.9400 hc         1 1Z7       0.034700
     56 HG24        -4.3630     2.1070    -1.6560 hc         1 1Z7       0.034700
     57 HG25        -4.8860     1.4290    -3.1890 hc         1 1Z7       0.034700
     58 HG26        -6.0780     1.8140    -1.9570 hc         1 1Z7       0.034700
     59 H1          -2.8020    -0.8580     0.1960 hn         1 1Z7       0.335500
     60 HA3         -1.7210     1.6650     1.2060 h1         1 1Z7       0.077700
     61 HB2         -0.2260     0.5450     2.7560 hc         1 1Z7       0.065700
     62 HG17        -3.1380    -0.1310     3.3730 hc         1 1Z7       0.039533
     63 HG18        -1.8350     0.0550     4.5410 hc         1 1Z7       0.039533
     64 HG19        -2.3850     1.4480     3.6080 hc         1 1Z7       0.039533
     65 HG27        -0.0510    -1.7120     1.7920 hc         1 1Z7       0.039533
     66 HG28        -0.6110    -1.8160     3.4550 hc         1 1Z7       0.039533
     67 HG29        -1.7600    -2.0270     2.1430 hc         1 1Z7       0.039533
     68 HA4          1.5570     0.1700    -1.4290 h1         1 1Z7       0.088700
     69 HB11         2.7790     2.6120    -0.0670 hc         1 1Z7       0.056200
     70 HB21         3.3740     1.8480    -1.5150 hc         1 1Z7       0.056200
     71 HG           0.6820     3.2490    -1.2190 hc         1 1Z7       0.037700
     72 HD11         3.1890     4.0590    -2.7630 hc         1 1Z7       0.025367
     73 HD12         1.6780     4.9650    -2.6920 hc         1 1Z7       0.025367
     74 HD13         2.6620     4.7730    -1.2410 hc         1 1Z7       0.025367
     75 HD21         1.9340     1.9440    -3.6820 hc         1 1Z7       0.025367
     76 HD22         0.4470     1.4360    -2.8800 hc         1 1Z7       0.025367
     77 HD23         0.5120     2.9870    -3.7060 hc         1 1Z7       0.025367
     78 HN1          0.6660     1.6240     0.9790 hn         1 1Z7       0.313500
     79 HA5          5.4390    -1.2380     1.0440 h1         1 1Z7       0.063700
     80 HB12         6.5640    -0.2320    -1.6000 hc         1 1Z7       0.048200
     81 HB22         7.4930    -0.9720    -0.3030 hc         1 1Z7       0.048200
     82 HD1          5.1190    -1.6070    -3.0350 ha         1 1Z7       0.129500
     83 HD2          7.2070    -3.3670     0.2550 ha         1 1Z7       0.129500
     84 HE1          4.5700    -3.8520    -3.8890 ha         1 1Z7       0.119000
     85 HE2          6.6470    -5.6130    -0.5860 ha         1 1Z7       0.119000
     86 HZ           5.3320    -5.8670    -2.6690 ha         1 1Z7       0.116000
     87 HS1          7.6140     1.5550     3.4230 h1         1 1Z7       0.036367
     88 HS2          7.8190     2.3650     1.8570 h1         1 1Z7       0.036367
     89 HS3          6.3180     2.5850     2.7830 h1         1 1Z7       0.036367
     90 OS           6.5620     0.6980     1.9280 os         1 1Z7      -0.412900
     91 O3           5.7310     1.8940     0.2340 o          1 1Z7      -0.545000
@<TRIPOS>BOND
     1     1     2 1   
     2     1     5 1   
     3     1    41 1   
     4     1    42 1   
     5     2     3 1   
     6     2     4 1   
     7     2    43 1   
     8     3    44 1   
     9     3    45 1   
    10     3    46 1   
    11     4    47 1   
    12     4    48 1   
    13     4    49 1   
    14     5     6 2   
    15     5     7 1   
    16     7     8 1   
    17     7    50 1   
    18     8     9 1   
    19     8    11 1   
    20     8    51 1   
    21     9    10 2   
    22     9    14 1   
    23    11    12 1   
    24    11    13 1   
    25    11    52 1   
    26    12    53 1   
    27    12    54 1   
    28    12    55 1   
    29    13    56 1   
    30    13    57 1   
    31    13    58 1   
    32    14    15 1   
    33    14    59 1   
    34    15    16 1   
    35    15    18 1   
    36    15    60 1   
    37    16    17 2   
    38    16    26 1   
    39    18    19 1   
    40    18    20 1   
    41    18    61 1   
    42    19    62 1   
    43    19    63 1   
    44    19    64 1   
    45    20    65 1   
    46    20    66 1   
    47    20    67 1   
    48    21    22 1   
    49    21    26 1   
    50    21    27 1   
    51    21    68 1   
    52    22    23 1   
    53    22    69 1   
    54    22    70 1   
    55    23    24 1   
    56    23    25 1   
    57    23    71 1   
    58    24    72 1   
    59    24    73 1   
    60    24    74 1   
    61    25    75 1   
    62    25    76 1   
    63    25    77 1   
    64    26    78 1   
    65    27    28 1   
    66    27    29 1   
    67    27    40 1   
    68    30    31 1   
    69    30    38 1   
    70    30    40 1   
    71    30    79 1   
    72    31    32 1   
    73    31    80 1   
    74    31    81 1   
    75    32    33 ar  
    76    32    34 ar  
    77    33    35 ar  
    78    33    82 1   
    79    34    36 ar  
    80    34    83 1   
    81    35    37 ar  
    82    35    84 1   
    83    36    37 ar  
    84    36    85 1   
    85    37    86 1   
    86    38    90 1   
    87    38    91 2   
    88    39    87 1   
    89    39    88 1   
    90    39    89 1   
    91    39    90 1   
@<TRIPOS>SUBSTRUCTURE
     1 1Z7         1 TEMP              0 ****  ****    0 ROOT
