@<TRIPOS>MOLECULE
1Z7
   91    91     1     0     0
SMALL
No Charge or Current Charge


@<TRIPOS>ATOM
      1 CA          -8.8220     0.0520     0.9290 c3         1 1Z7      -0.155400
      2 CB          -9.8400    -0.0480    -0.2400 c3         1 1Z7      -0.052700
      3 CG1        -11.2010     0.5700     0.1520 c3         1 1Z7      -0.089600
      4 CG2         -9.3000     0.5820    -1.5450 c3         1 1Z7      -0.089600
      5 C           -7.5390    -0.7460     0.6670 c          1 1Z7       0.603100
      6 O           -7.5000    -1.9670     0.7300 o          1 1Z7      -0.617100
      7 N           -6.4240     0.0180     0.4070 ns         1 1Z7      -0.486900
      8 CA1         -5.0590    -0.5040     0.1510 c3         1 1Z7       0.024700
      9 C1          -4.0030     0.4210     0.8270 c          1 1Z7       0.591100
     10 O1          -4.2750     1.5270     1.2800 o          1 1Z7      -0.631100
     11 CB1         -4.7790    -0.7010    -1.3750 c3         1 1Z7      -0.071700
     12 CG11        -5.6030    -1.8570    -1.9890 c3         1 1Z7      -0.086600
     13 CG21        -4.9480     0.6030    -2.1940 c3         1 1Z7      -0.086600
     14 N1          -2.7240    -0.0930     0.8770 ns         1 1Z7      -0.472900
     15 CA2         -1.5420     0.5930     1.4510 c3         1 1Z7       0.022700
     16 C2          -0.3020     0.3630     0.5370 c          1 1Z7       0.590100
     17 O2          -0.2840    -0.4700    -0.3640 o          1 1Z7      -0.627100
     18 CB2         -1.2770     0.1620     2.9290 c3         1 1Z7      -0.067700
     19 CG12        -2.4040     0.6110     3.8890 c3         1 1Z7      -0.093100
     20 CG22        -0.9940    -1.3540     3.0760 c3         1 1Z7      -0.093100
     21 CA3          2.0870     1.1640     0.0810 c3         1 1Z7      -0.227300
     22 CB3          2.4140     2.5630    -0.5130 c3         1 1Z7      -0.060400
     23 CG           1.3450     3.1490    -1.4800 c3         1 1Z7      -0.056700
     24 CD1          1.7060     4.5950    -1.8890 c3         1 1Z7      -0.084100
     25 CD2          1.1250     2.2660    -2.7320 c3         1 1Z7      -0.084100
     26 N2           0.7830     1.1790     0.8110 ns         1 1Z7      -0.466900
     27 P            3.5150     0.4280     1.0460 p5         1 1Z7       1.373400
     28 O11          3.9580     1.3600     2.1270 o          1 1Z7      -0.804500
     29 O21          3.1590    -0.9260     1.5680 o          1 1Z7      -0.804500
     30 CA4          5.9030    -0.2160     0.1330 c3         1 1Z7       0.194300
     31 CB4          6.3420    -1.0140    -1.1190 c3         1 1Z7      -0.034100
     32 CG3          5.3820    -2.1450    -1.4720 ca         1 1Z7      -0.056300
     33 CD11         4.3150    -1.9210    -2.3650 ca         1 1Z7      -0.091500
     34 CD21         5.5500    -3.4230    -0.9040 ca         1 1Z7      -0.091500
     35 CE1          3.4270    -2.9620    -2.6860 ca         1 1Z7      -0.114500
     36 CE2          4.6630    -4.4650    -1.2270 ca         1 1Z7      -0.114500
     37 CZ           3.6020    -4.2350    -2.1180 ca         1 1Z7      -0.117000
     38 C3           6.9450     0.8750     0.5250 c          1 1Z7       0.584100
     39 CS           9.1600     1.1980     1.4290 c3         1 1Z7       0.156900
     40 OP           4.5970     0.3370    -0.1450 os         1 1Z7      -0.567400
     41 HA1         -8.5820     1.1100     1.0910 hc         1 1Z7       0.057200
     42 HA2         -9.2920    -0.3570     1.8310 hc         1 1Z7       0.057200
     43 HB         -10.0170    -1.1140    -0.4380 hc         1 1Z7       0.066700
     44 HG11       -11.0970     1.6410     0.3670 hc         1 1Z7       0.032200
     45 HG12       -11.9290     0.4530    -0.6600 hc         1 1Z7       0.032200
     46 HG13       -11.6100     0.0790     1.0430 hc         1 1Z7       0.032200
     47 HG21        -8.3860     0.0800    -1.8780 hc         1 1Z7       0.032200
     48 HG22       -10.0390     0.4950    -2.3510 hc         1 1Z7       0.032200
     49 HG23        -9.0750     1.6460    -1.4020 hc         1 1Z7       0.032200
     50 H           -6.5480     1.0230     0.4290 hn         1 1Z7       0.325500
     51 HA          -4.9590    -1.4780     0.6490 h1         1 1Z7       0.094700
     52 HB1         -3.7280    -1.0010    -1.4770 hc         1 1Z7       0.071700
     53 HG14        -6.6730    -1.6220    -1.9990 hc         1 1Z7       0.034700
     54 HG15        -5.2890    -2.0470    -3.0220 hc         1 1Z7       0.034700
     55 HG16        -5.4590    -2.7830    -1.4180 hc         1 1Z7       0.034700
     56 HG24        -4.3070     1.4010    -1.8000 hc         1 1Z7       0.034700
     57 HG25        -4.6680     0.4380    -3.2420 hc         1 1Z7       0.034700
     58 HG26        -5.9860     0.9530    -2.1730 hc         1 1Z7       0.034700
     59 H1          -2.5760    -0.9970     0.4430 hn         1 1Z7       0.335500
     60 HA3         -1.7260     1.6760     1.4360 h1         1 1Z7       0.077700
     61 HB2         -0.3710     0.6860     3.2620 hc         1 1Z7       0.065700
     62 HG17        -3.3400     0.0800     3.6780 hc         1 1Z7       0.039533
     63 HG18        -2.1280     0.4070     4.9310 hc         1 1Z7       0.039533
     64 HG19        -2.5900     1.6880     3.7950 hc         1 1Z7       0.039533
     65 HG27        -0.1460    -1.6590     2.4520 hc         1 1Z7       0.039533
     66 HG28        -0.7480    -1.6000     4.1150 hc         1 1Z7       0.039533
     67 HG29        -1.8680    -1.9500     2.7860 hc         1 1Z7       0.039533
     68 HA4          2.0200     0.4480    -0.7450 h1         1 1Z7       0.088700
     69 HB11         2.5640     3.2650     0.3170 hc         1 1Z7       0.056200
     70 HB21         3.3720     2.5130    -1.0460 hc         1 1Z7       0.056200
     71 HG           0.3900     3.2020    -0.9430 hc         1 1Z7       0.037700
     72 HD11         2.6540     4.6200    -2.4400 hc         1 1Z7       0.025367
     73 HD12         0.9250     5.0240    -2.5290 hc         1 1Z7       0.025367
     74 HD13         1.8060     5.2350    -1.0040 hc         1 1Z7       0.025367
     75 HD21         2.0620     2.1340    -3.2860 hc         1 1Z7       0.025367
     76 HD22         0.7450     1.2750    -2.4570 hc         1 1Z7       0.025367
     77 HD23         0.3910     2.7250    -3.4040 hc         1 1Z7       0.025367
     78 HN1          0.6710     1.8280     1.5830 hn         1 1Z7       0.313500
     79 HA5          5.8580    -0.9180     0.9760 h1         1 1Z7       0.063700
     80 HB12         6.4420    -0.3220    -1.9650 hc         1 1Z7       0.048200
     81 HB22         7.3450    -1.4230    -0.9470 hc         1 1Z7       0.048200
     82 HD1          4.1700    -0.9370    -2.8050 ha         1 1Z7       0.111500
     83 HD2          6.3680    -3.6100    -0.2110 ha         1 1Z7       0.111500
     84 HE1          2.6040    -2.7820    -3.3740 ha         1 1Z7       0.101000
     85 HE2          4.7980    -5.4500    -0.7850 ha         1 1Z7       0.101000
     86 HZ           2.9150    -5.0410    -2.3660 ha         1 1Z7       0.098000
     87 HS1         10.0140     0.6180     1.8000 h1         1 1Z7       0.036367
     88 HS2          9.5040     1.8120     0.5870 h1         1 1Z7       0.036367
     89 HS3          8.8250     1.8640     2.2340 h1         1 1Z7       0.036367
     90 OS           8.0990     0.3160     1.0190 os         1 1Z7      -0.436100
     91 O3           6.7650     2.0850     0.4210 o          1 1Z7      -0.496000
@<TRIPOS>BOND
     1     1     2 1   
     2     1     5 1   
     3     1    41 1   
     4     1    42 1   
     5     2     3 1   
     6     2     4 1   
     7     2    43 1   
     8     3    44 1   
     9     3    45 1   
    10     3    46 1   
    11     4    47 1   
    12     4    48 1   
    13     4    49 1   
    14     5     6 2   
    15     5     7 1   
    16     7     8 1   
    17     7    50 1   
    18     8     9 1   
    19     8    11 1   
    20     8    51 1   
    21     9    10 2   
    22     9    14 1   
    23    11    12 1   
    24    11    13 1   
    25    11    52 1   
    26    12    53 1   
    27    12    54 1   
    28    12    55 1   
    29    13    56 1   
    30    13    57 1   
    31    13    58 1   
    32    14    15 1   
    33    14    59 1   
    34    15    16 1   
    35    15    18 1   
    36    15    60 1   
    37    16    17 2   
    38    16    26 1   
    39    18    19 1   
    40    18    20 1   
    41    18    61 1   
    42    19    62 1   
    43    19    63 1   
    44    19    64 1   
    45    20    65 1   
    46    20    66 1   
    47    20    67 1   
    48    21    22 1   
    49    21    26 1   
    50    21    27 1   
    51    21    68 1   
    52    22    23 1   
    53    22    69 1   
    54    22    70 1   
    55    23    24 1   
    56    23    25 1   
    57    23    71 1   
    58    24    72 1   
    59    24    73 1   
    60    24    74 1   
    61    25    75 1   
    62    25    76 1   
    63    25    77 1   
    64    26    78 1   
    65    27    28 1   
    66    27    29 1   
    67    27    40 1   
    68    30    31 1   
    69    30    38 1   
    70    30    40 1   
    71    30    79 1   
    72    31    32 1   
    73    31    80 1   
    74    31    81 1   
    75    32    33 ar  
    76    32    34 ar  
    77    33    35 ar  
    78    33    82 1   
    79    34    36 ar  
    80    34    83 1   
    81    35    37 ar  
    82    35    84 1   
    83    36    37 ar  
    84    36    85 1   
    85    37    86 1   
    86    38    90 1   
    87    38    91 2   
    88    39    87 1   
    89    39    88 1   
    90    39    89 1   
    91    39    90 1   
@<TRIPOS>SUBSTRUCTURE
     1 1Z7         1 TEMP              0 ****  ****    0 ROOT
