@<TRIPOS>MOLECULE
1Z8
   22    23     1     0     0
SMALL
No Charge or Current Charge


@<TRIPOS>ATOM
      1 C2          -1.7580    -1.1140     0.1410 c3         1 1Z8       0.293700
      2 C5          -1.4760     0.3880     0.1370 cc         1 1Z8       0.141300
      3 C10         -0.1930     0.9940    -0.0030 cc         1 1Z8      -0.096000
      4 C11          1.1950     0.4810     0.0050 ca         1 1Z8      -0.010000
      5 C12          1.5380    -0.7610     0.5870 ca         1 1Z8      -0.094500
      6 C13          2.8670    -1.2210     0.5860 ca         1 1Z8      -0.109500
      7 C14          3.8810    -0.4470     0.0050 ca         1 1Z8      -0.103000
      8 C15          3.5640     0.7930    -0.5680 ca         1 1Z8      -0.109500
      9 C16          2.2360     1.2530    -0.5630 ca         1 1Z8      -0.094500
     10 F1          -1.6070    -1.6520     1.3740 f          1 1Z8      -0.106667
     11 F3          -3.0280    -1.3900    -0.2440 f          1 1Z8      -0.106667
     12 F4          -0.9520    -1.7930    -0.7080 f          1 1Z8      -0.106667
     13 N6          -2.4540     1.2800     0.1970 nd         1 1Z8      -0.467800
     14 N7          -1.7910     2.4980     0.1120 na         1 1Z8       0.018800
     15 C9          -0.4070     2.3450     0.0010 cd         1 1Z8      -0.168000
     16 H18          0.7940    -1.3700     1.0820 ha         1 1Z8       0.115500
     17 H19          3.1100    -2.1770     1.0440 ha         1 1Z8       0.114500
     18 H20          4.9090    -0.8030     0.0040 ha         1 1Z8       0.114000
     19 H21          4.3470     1.3980    -1.0190 ha         1 1Z8       0.114500
     20 H22          2.0230     2.2100    -1.0330 ha         1 1Z8       0.115500
     21 H8          -2.2990     3.3820     0.1420 hn         1 1Z8       0.382000
     22 H17          0.2740     3.1870    -0.0320 h4         1 1Z8       0.165000
@<TRIPOS>BOND
     1     1     2 1   
     2     1    10 1   
     3     1    11 1   
     4     1    12 1   
     5     2     3 1   
     6     2    13 2   
     7     3     4 1   
     8     3    15 2   
     9     4     5 ar  
    10     4     9 ar  
    11     5     6 ar  
    12     5    16 1   
    13     6     7 ar  
    14     6    17 1   
    15     7     8 ar  
    16     7    18 1   
    17     8     9 ar  
    18     8    19 1   
    19     9    20 1   
    20    13    14 1   
    21    14    15 1   
    22    14    21 1   
    23    15    22 1   
@<TRIPOS>SUBSTRUCTURE
     1 1Z8         1 TEMP              0 ****  ****    0 ROOT
