@<TRIPOS>MOLECULE
1Z8
   22    23     1     0     0
SMALL
abcg2


@<TRIPOS>ATOM
      1 C2          -1.6990    -1.0500    -0.1070 c3         1 1Z8       0.293700
      2 C5          -1.3950     0.3960     0.0520 cc         1 1Z8       0.141300
      3 C10         -0.1370     1.0320     0.1290 cc         1 1Z8      -0.096000
      4 C11          1.2240     0.4860     0.0800 ca         1 1Z8      -0.010000
      5 C12          1.6000    -0.6170     0.8470 ca         1 1Z8      -0.094500
      6 C13          2.9000    -1.0990     0.8010 ca         1 1Z8      -0.109500
      7 C14          3.8480    -0.4850    -0.0070 ca         1 1Z8      -0.103000
      8 C15          3.4870     0.6190    -0.7670 ca         1 1Z8      -0.109500
      9 C16          2.1850     1.0980    -0.7260 ca         1 1Z8      -0.094500
     10 F1          -1.5900    -1.7240     1.0500 f          1 1Z8      -0.106667
     11 F3          -2.9410    -1.2490    -0.5520 f          1 1Z8      -0.106667
     12 F4          -0.8600    -1.6330    -0.9710 f          1 1Z8      -0.106667
     13 N6          -2.3910     1.2590     0.1230 nd         1 1Z8      -0.467800
     14 N7          -1.8090     2.4330     0.2440 na         1 1Z8       0.018800
     15 C9          -0.4700     2.3650     0.2490 cd         1 1Z8      -0.168000
     16 H18          0.8860    -1.0920     1.5060 ha         1 1Z8       0.115500
     17 H19          3.1730    -1.9560     1.4040 ha         1 1Z8       0.114500
     18 H20          4.8620    -0.8620    -0.0410 ha         1 1Z8       0.114000
     19 H21          4.2160     1.1050    -1.4020 ha         1 1Z8       0.114500
     20 H22          1.9090     1.9510    -1.3350 ha         1 1Z8       0.115500
     21 H8          -2.3740     3.2650     0.3190 hn         1 1Z8       0.382000
     22 H17          0.1510     3.2400     0.3500 h4         1 1Z8       0.165000
@<TRIPOS>BOND
     1     1     2 1   
     2     1    10 1   
     3     1    11 1   
     4     1    12 1   
     5     2     3 1   
     6     2    13 2   
     7     3     4 1   
     8     3    15 2   
     9     4     5 ar  
    10     4     9 ar  
    11     5     6 ar  
    12     5    16 1   
    13     6     7 ar  
    14     6    17 1   
    15     7     8 ar  
    16     7    18 1   
    17     8     9 ar  
    18     8    19 1   
    19     9    20 1   
    20    13    14 1   
    21    14    15 1   
    22    14    21 1   
    23    15    22 1   
@<TRIPOS>SUBSTRUCTURE
     1 1Z8         1 TEMP              0 ****  ****    0 ROOT
