@<TRIPOS>MOLECULE
1ZB
   32    32     1     0     0
SMALL
bcc


@<TRIPOS>ATOM
      1 N           31.7760    24.8590    19.0680 n8         1 1ZB      -0.868800
      2 CA          30.8410    25.9320    19.3290 c3         1 1ZB       0.073800
      3 C           30.0560    25.6660    20.5980 c          1 1ZB       0.666100
      4 O           30.5090    25.0090    21.5180 o          1 1ZB      -0.579100
      5 N1          28.8250    26.2270    20.6250 ns         1 1ZB      -0.582900
      6 CA1         28.0070    26.3100    21.8120 c3         1 1ZB       0.003700
      7 C1          26.5980    25.7980    21.5020 c2         1 1ZB       0.606300
      8 O1          25.6080    26.4700    21.7210 o          1 1ZB      -0.562300
      9 CB          27.9990    27.7260    22.3960 c3         1 1ZB      -0.038100
     10 CG          29.3890    28.1460    22.7810 ca         1 1ZB      -0.084300
     11 CD1         30.2050    28.8390    21.8900 ca         1 1ZB      -0.122500
     12 CD2         29.9090    27.8000    24.0260 ca         1 1ZB      -0.122500
     13 CE1         31.5100    29.1700    22.2310 ca         1 1ZB      -0.125000
     14 CE2         31.2100    28.1310    24.3730 ca         1 1ZB      -0.125000
     15 CZ          32.0180    28.8160    23.4730 ca         1 1ZB      -0.124000
     16 C2          26.4680    24.4700    20.9470 ce         1 1ZB       0.068700
     17 N3          27.5010    23.6980    20.7590 n1         1 1ZB      -0.296700
     18 N4          28.3830    23.0310    20.6010 n1         1 1ZB       0.037000
     19 H           32.2640    25.0550    18.2040 hn         1 1ZB       0.351300
     20 H2          32.4850    24.8410    19.7890 hn         1 1ZB       0.351300
     21 HA2         31.3010    26.9250    19.4530 h1         1 1ZB       0.044200
     22 HA3         30.1560    26.0230    18.4840 h1         1 1ZB       0.044200
     23 H1          28.5490    26.8020    19.8420 hn         1 1ZB       0.313500
     24 HA          28.4440    25.6310    22.5510 h1         1 1ZB       0.097700
     25 HB2         27.5780    28.4200    21.6650 hc         1 1ZB       0.066700
     26 HB3         27.3480    27.7440    23.2710 hc         1 1ZB       0.066700
     27 HD1         29.8150    29.1230    20.9190 ha         1 1ZB       0.126000
     28 HD2         29.2850    27.2630    24.7330 ha         1 1ZB       0.126000
     29 HE1         32.1300    29.7070    21.5240 ha         1 1ZB       0.130000
     30 HE2         31.5960    27.8550    25.3460 ha         1 1ZB       0.130000
     31 HZ          33.0350    29.0740    23.7400 ha         1 1ZB       0.131000
     32 H11         25.5100    24.0400    20.6970 h4         1 1ZB       0.198000
@<TRIPOS>BOND
     1     1     2 1   
     2     1    19 1   
     3     1    20 1   
     4     2     3 1   
     5     2    21 1   
     6     2    22 1   
     7     3     4 2   
     8     3     5 1   
     9     5     6 1   
    10     5    23 1   
    11     6     7 1   
    12     6     9 1   
    13     6    24 1   
    14     7     8 1   
    15     7    16 2   
    16     9    10 1   
    17     9    25 1   
    18     9    26 1   
    19    10    11 ar  
    20    10    12 ar  
    21    11    13 ar  
    22    11    27 1   
    23    12    14 ar  
    24    12    28 1   
    25    13    15 ar  
    26    13    29 1   
    27    14    15 ar  
    28    14    30 1   
    29    15    31 1   
    30    16    17 1   
    31    16    32 1   
    32    17    18 3   
@<TRIPOS>SUBSTRUCTURE
     1 1ZB         1 TEMP              0 ****  ****    0 ROOT
