@<TRIPOS>MOLECULE
1ZC
   25    26     1     0     0
SMALL
No Charge or Current Charge


@<TRIPOS>ATOM
      1 C1           5.3880     0.3840    -0.3220 c3         1 1ZC       0.147900
      2 C3           2.9480     0.1220    -0.0430 ca         1 1ZC       0.131100
      3 C5           1.8900    -2.0150     0.4470 ca         1 1ZC      -0.084000
      4 C6           0.6290    -1.3940     0.4570 ca         1 1ZC      -0.093000
      5 C7           0.5060    -0.0080     0.1980 ca         1 1ZC      -0.130600
      6 C8           1.6860     0.7380    -0.0300 ca         1 1ZC      -0.094000
      7 C11         -2.0360     0.0050    -0.3000 cc         1 1ZC       0.114500
      8 C15         -3.3340     0.5600    -0.2590 cc         1 1ZC       0.514900
      9 O2           4.0510     0.9160    -0.2880 os         1 1ZC      -0.338100
     10 C4           3.0490    -1.2650     0.1920 ca         1 1ZC      -0.169000
     11 C9          -0.8290     0.7180     0.2180 c          1 1ZC       0.519200
     12 O10         -0.8740     1.8590     0.6730 o          1 1ZC      -0.513100
     13 N12         -2.0710    -1.1790    -0.8810 nd         1 1ZC      -0.274300
     14 O13         -3.4660    -1.3440    -1.1810 os         1 1ZC       0.119600
     15 N14         -4.2430    -0.2140    -0.7690 nd         1 1ZC      -0.442300
     16 N16         -3.6960     1.7700     0.2410 nv         1 1ZC      -1.038900
     17 H18          6.1100     1.1840    -0.5320 h1         1 1ZC       0.043033
     18 H17          5.6530    -0.0680     0.6420 h1         1 1ZC       0.043033
     19 H19          5.4850    -0.3760    -1.1080 h1         1 1ZC       0.043033
     20 H21          1.9680    -3.0820     0.6460 ha         1 1ZC       0.118000
     21 H22         -0.2410    -2.0000     0.6970 ha         1 1ZC       0.128000
     22 H23          1.6250     1.8090    -0.2120 ha         1 1ZC       0.143000
     23 H20          4.0090    -1.7720     0.1910 ha         1 1ZC       0.120000
     24 H25         -3.0060     2.2920     0.7790 hn         1 1ZC       0.495500
     25 H24         -4.6790     1.9330     0.4450 hn         1 1ZC       0.495500
@<TRIPOS>BOND
     1     1     9 1   
     2     1    17 1   
     3     1    18 1   
     4     1    19 1   
     5     2     6 ar  
     6     2     9 1   
     7     2    10 ar  
     8     3     4 ar  
     9     3    10 ar  
    10     3    20 1   
    11     4     5 ar  
    12     4    21 1   
    13     5     6 ar  
    14     5    11 1   
    15     6    22 1   
    16     7     8 1   
    17     7    11 1   
    18     7    13 2   
    19     8    15 2   
    20     8    16 1   
    21    10    23 1   
    22    11    12 2   
    23    13    14 1   
    24    14    15 1   
    25    16    24 1   
    26    16    25 1   
@<TRIPOS>SUBSTRUCTURE
     1 1ZC         1 TEMP              0 ****  ****    0 ROOT
