@<TRIPOS>MOLECULE
1ZC
   25    26     1     0     0
SMALL
abcg2


@<TRIPOS>ATOM
      1 C1           5.3040     0.3110    -0.3250 c3         1 1ZC       0.147900
      2 C3           2.9540     0.1170    -0.0600 ca         1 1ZC       0.131100
      3 C5           1.8640    -1.9570     0.4940 ca         1 1ZC      -0.084000
      4 C6           0.6230    -1.3480     0.4470 ca         1 1ZC      -0.093000
      5 C7           0.5510     0.0150     0.1560 ca         1 1ZC      -0.130600
      6 C8           1.7100     0.7450    -0.0800 ca         1 1ZC      -0.094000
      7 C11         -1.9640     0.0920    -0.3170 cc         1 1ZC       0.114500
      8 C15         -3.3170     0.5660    -0.2060 cc         1 1ZC       0.514900
      9 O2           4.0150     0.8950    -0.3300 os         1 1ZC      -0.338100
     10 C4           3.0280    -1.2440     0.2360 ca         1 1ZC      -0.169000
     11 C9          -0.7330     0.7550     0.1540 c          1 1ZC       0.519200
     12 O10         -0.8060     1.9130     0.5080 o          1 1ZC      -0.513100
     13 N12         -1.9900    -1.0220    -0.9800 nd         1 1ZC      -0.274300
     14 O13         -3.2470    -1.2700    -1.2720 os         1 1ZC       0.119600
     15 N14         -4.0840    -0.3070    -0.7980 nd         1 1ZC      -0.442300
     16 N16         -3.7590     1.7090     0.3480 nv         1 1ZC      -1.038900
     17 H18          6.0030     1.1090    -0.5630 h1         1 1ZC       0.043033
     18 H17          5.5610    -0.1030     0.6530 h1         1 1ZC       0.043033
     19 H19          5.3990    -0.4750    -1.0790 h1         1 1ZC       0.043033
     20 H21          1.9370    -3.0100     0.7350 ha         1 1ZC       0.118000
     21 H22         -0.2650    -1.9240     0.6630 ha         1 1ZC       0.128000
     22 H23          1.6560     1.8040    -0.2990 ha         1 1ZC       0.143000
     23 H20          3.9770    -1.7620     0.2750 ha         1 1ZC       0.120000
     24 H25         -3.1520     2.1870     0.9910 hn         1 1ZC       0.495500
     25 H24         -4.7430     1.7780     0.5500 hn         1 1ZC       0.495500
@<TRIPOS>BOND
     1     1     9 1   
     2     1    17 1   
     3     1    18 1   
     4     1    19 1   
     5     2     6 ar  
     6     2     9 1   
     7     2    10 ar  
     8     3     4 ar  
     9     3    10 ar  
    10     3    20 1   
    11     4     5 ar  
    12     4    21 1   
    13     5     6 ar  
    14     5    11 1   
    15     6    22 1   
    16     7     8 1   
    17     7    11 1   
    18     7    13 2   
    19     8    15 2   
    20     8    16 1   
    21    10    23 1   
    22    11    12 2   
    23    13    14 1   
    24    14    15 1   
    25    16    24 1   
    26    16    25 1   
@<TRIPOS>SUBSTRUCTURE
     1 1ZC         1 TEMP              0 ****  ****    0 ROOT
