@<TRIPOS>MOLECULE
1ZG
   63    64     1     0     0
SMALL
No Charge or Current Charge


@<TRIPOS>ATOM
      1 C1          14.0430    47.3270    -0.9710 c          1 1ZG       0.721000
      2 O1          14.3210    48.5150    -1.0350 o          1 1ZG      -0.748000
      3 O2          14.4850    46.4870    -1.7390 o          1 1ZG      -0.748000
      4 C2          13.1450    46.8530     0.1850 c3         1 1ZG      -0.205400
      5 C3          14.0030    46.4880     1.4290 c3         1 1ZG      -0.133400
      6 C4          13.1410    46.0160     2.6080 c          1 1ZG       0.595100
      7 O3          12.4960    46.7880     3.3050 o          1 1ZG      -0.664100
      8 N           13.1800    44.6630     2.8520 ns         1 1ZG      -0.499900
      9 CA          12.4200    43.9590     3.9120 c3         1 1ZG       0.041700
     10 C           13.1420    42.6110     4.2550 c          1 1ZG       0.599100
     11 O           13.8520    42.0500     3.4250 o          1 1ZG      -0.606100
     12 CB          10.9260    43.7750     3.4790 c3         1 1ZG      -0.064700
     13 CG1         10.7570    42.7650     2.3170 c3         1 1ZG      -0.092100
     14 CG2          9.9760    43.4280     4.6470 c3         1 1ZG      -0.092100
     15 N1          12.9330    42.0140     5.5170 n          1 1ZG      -0.387800
     16 CA1         13.4030    40.6270     5.8080 c5         1 1ZG       0.016700
     17 C5          12.4130    39.5140     5.3290 c          1 1ZG       0.593100
     18 O4          11.2260    39.6430     5.0410 o          1 1ZG      -0.671100
     19 CB1         13.4680    40.6270     7.3690 c5         1 1ZG      -0.085400
     20 CG          12.3750    41.6540     7.7540 c5         1 1ZG      -0.091400
     21 CD          12.6630    42.7890     6.7450 c5         1 1ZG       0.110000
     22 N2          13.0950    38.3110     5.2570 ns         1 1ZG      -0.414900
     23 CA2         12.5190    37.0080     4.8270 c3         1 1ZG      -0.195300
     24 P           13.0000    35.5940     5.9620 p5         1 1ZG       1.281500
     25 O1P         12.3990    34.3230     5.4630 o          1 1ZG      -0.921500
     26 O2P         12.4960    35.8840     7.3360 o          1 1ZG      -0.921500
     27 CB2         12.8500    36.7040     3.3430 c3         1 1ZG      -0.025100
     28 CG3         12.3540    37.7710     2.3710 ca         1 1ZG      -0.023300
     29 CD1         11.0170    37.7590     1.9290 ca         1 1ZG      -0.110500
     30 CD2         13.2290    38.7690     1.8950 ca         1 1ZG      -0.110500
     31 CE1         10.5590    38.7300     1.0210 ca         1 1ZG      -0.119000
     32 CE2         12.7710    39.7400     0.9870 ca         1 1ZG      -0.119000
     33 CZ          11.4370    39.7190     0.5480 ca         1 1ZG      -0.153000
     34 OGG         14.4880    35.4840     5.9850 o          1 1ZG      -0.921500
     35 H21         12.4780    47.6630     0.5050 hc         1 1ZG       0.028700
     36 H22         12.6160    45.9330    -0.0950 hc         1 1ZG       0.028700
     37 H31         14.7040    45.6950     1.1400 hc         1 1ZG       0.058200
     38 H32         14.5620    47.3780     1.7390 hc         1 1ZG       0.058200
     39 H           13.7630    44.1040     2.2390 hn         1 1ZG       0.338500
     40 HA          12.4520    44.5910     4.8080 h1         1 1ZG       0.066700
     41 HB          10.5820    44.7450     3.1010 hc         1 1ZG       0.042700
     42 HG11        11.3980    43.0290     1.4670 hc         1 1ZG       0.038533
     43 HG12        11.0120    41.7490     2.6390 hc         1 1ZG       0.038533
     44 HG13         9.7190    42.7560     1.9620 hc         1 1ZG       0.038533
     45 HG21        10.0380    44.1860     5.4370 hc         1 1ZG       0.038533
     46 HG22         8.9360    43.3980     4.2990 hc         1 1ZG       0.038533
     47 HG23        10.2130    42.4480     5.0780 hc         1 1ZG       0.038533
     48 HA1         14.3910    40.4320     5.3700 h1         1 1ZG       0.069700
     49 HB2         13.2950    39.6380     7.8110 hc         1 1ZG       0.072200
     50 HB3         14.4530    40.9620     7.7150 hc         1 1ZG       0.072200
     51 HG2         11.3690    41.2430     7.6140 hc         1 1ZG       0.047700
     52 HG3         12.4540    41.9900     8.7940 hc         1 1ZG       0.047700
     53 HD2         13.5460    43.3740     7.0330 h1         1 1ZG       0.027200
     54 HD3         11.8100    43.4700     6.6520 h1         1 1ZG       0.027200
     55 HN2         14.0650    38.3240     5.5520 hn         1 1ZG       0.322500
     56 HA2         11.4290    37.0610     4.9300 h1         1 1ZG       0.052700
     57 HB1         13.9350    36.5750     3.2380 hc         1 1ZG       0.054700
     58 HB21        12.4090    35.7370     3.0700 hc         1 1ZG       0.054700
     59 HD1         10.3320    36.9970     2.2910 ha         1 1ZG       0.108000
     60 HD21        14.2620    38.7940     2.2310 ha         1 1ZG       0.108000
     61 HE1          9.5250    38.7150     0.6850 ha         1 1ZG       0.083500
     62 HE2         13.4500    40.5100     0.6280 ha         1 1ZG       0.083500
     63 HZ          11.0830    40.4710    -0.1530 ha         1 1ZG       0.082000
@<TRIPOS>BOND
     1     1     2 1   
     2     1     3 1   
     3     1     4 1   
     4     4     5 1   
     5     4    35 1   
     6     4    36 1   
     7     5     6 1   
     8     5    37 1   
     9     5    38 1   
    10     6     7 2   
    11     6     8 1   
    12     8     9 1   
    13     8    39 1   
    14     9    10 1   
    15     9    12 1   
    16     9    40 1   
    17    10    11 2   
    18    10    15 1   
    19    12    13 1   
    20    12    14 1   
    21    12    41 1   
    22    13    42 1   
    23    13    43 1   
    24    13    44 1   
    25    14    45 1   
    26    14    46 1   
    27    14    47 1   
    28    15    16 1   
    29    15    21 1   
    30    16    17 1   
    31    16    19 1   
    32    16    48 1   
    33    17    18 2   
    34    17    22 1   
    35    19    20 1   
    36    19    49 1   
    37    19    50 1   
    38    20    21 1   
    39    20    51 1   
    40    20    52 1   
    41    21    53 1   
    42    21    54 1   
    43    22    23 1   
    44    22    55 1   
    45    23    24 1   
    46    23    27 1   
    47    23    56 1   
    48    24    25 1   
    49    24    26 1   
    50    24    34 1   
    51    27    28 1   
    52    27    57 1   
    53    27    58 1   
    54    28    29 ar  
    55    28    30 ar  
    56    29    31 ar  
    57    29    59 1   
    58    30    32 ar  
    59    30    60 1   
    60    31    33 ar  
    61    31    61 1   
    62    32    33 ar  
    63    32    62 1   
    64    33    63 1   
@<TRIPOS>SUBSTRUCTURE
     1 1ZG         1 TEMP              0 ****  ****    0 ROOT
