@<TRIPOS>MOLECULE
1ZG
   63    64     1     0     0
SMALL
abcg2


@<TRIPOS>ATOM
      1 C1          13.8040    47.1110    -0.7940 c          1 1ZG       0.721000
      2 O1          12.9980    47.5360    -1.6460 o          1 1ZG      -0.748000
      3 O2          15.0390    47.0050    -0.9170 o          1 1ZG      -0.748000
      4 C2          13.1750    46.6670     0.5440 c3         1 1ZG      -0.205400
      5 C3          14.1720    46.2550     1.6250 c3         1 1ZG      -0.133400
      6 C4          13.4280    45.8310     2.8690 c          1 1ZG       0.595100
      7 O3          12.9620    46.6400     3.6630 o          1 1ZG      -0.664100
      8 N           13.2720    44.5000     3.0080 ns         1 1ZG      -0.499900
      9 CA          12.4190    43.8920     4.0010 c3         1 1ZG       0.041700
     10 C           13.0000    42.5140     4.3020 c          1 1ZG       0.599100
     11 O           13.4650    41.8390     3.3890 o          1 1ZG      -0.606100
     12 CB          10.9520    43.8180     3.5040 c3         1 1ZG      -0.064700
     13 CG1         10.7700    42.9450     2.2660 c3         1 1ZG      -0.092100
     14 CG2          9.9790    43.3960     4.5970 c3         1 1ZG      -0.092100
     15 N1          12.9780    42.0610     5.5620 n          1 1ZG      -0.387800
     16 CA1         13.4470    40.7160     5.8360 c5         1 1ZG       0.016700
     17 C5          12.5090    39.6680     5.2390 c          1 1ZG       0.593100
     18 O4          11.3080    39.8790     5.1130 o          1 1ZG      -0.671100
     19 CB1         13.4360    40.6280     7.3710 c5         1 1ZG      -0.085400
     20 CG          12.3920    41.6570     7.7870 c5         1 1ZG      -0.091400
     21 CD          12.5860    42.7760     6.7740 c5         1 1ZG       0.110000
     22 N2          13.1170    38.5170     4.9550 ns         1 1ZG      -0.414900
     23 CA2         12.4650    37.2430     4.7210 c3         1 1ZG      -0.195300
     24 P           13.0970    36.0630     6.0530 p5         1 1ZG       1.281500
     25 O1P         12.5710    34.6830     5.6490 o          1 1ZG      -0.921500
     26 O2P         12.5110    36.6180     7.3560 o          1 1ZG      -0.921500
     27 CB2         12.7460    36.7360     3.3040 c3         1 1ZG      -0.025100
     28 CG3         12.3220    37.6960     2.2310 ca         1 1ZG      -0.023300
     29 CD1         10.9770    37.8260     1.8820 ca         1 1ZG      -0.110500
     30 CD2         13.2470    38.5100     1.5830 ca         1 1ZG      -0.110500
     31 CE1         10.5700    38.7400     0.9200 ca         1 1ZG      -0.119000
     32 CE2         12.8480    39.4260     0.6170 ca         1 1ZG      -0.119000
     33 CZ          11.5070    39.5450     0.2820 ca         1 1ZG      -0.153000
     34 OGG         14.6220    36.2250     5.9320 o          1 1ZG      -0.921500
     35 H21         12.5420    47.4780     0.9160 hc         1 1ZG       0.028700
     36 H22         12.4920    45.8350     0.3390 hc         1 1ZG       0.028700
     37 H31         14.8100    45.4500     1.2550 hc         1 1ZG       0.058200
     38 H32         14.8220    47.0940     1.8760 hc         1 1ZG       0.058200
     39 H           13.6560    43.8890     2.3040 hn         1 1ZG       0.338500
     40 HA          12.4430    44.5240     4.8900 h1         1 1ZG       0.066700
     41 HB          10.7090    44.8480     3.2250 hc         1 1ZG       0.042700
     42 HG11        11.4730    43.1940     1.4700 hc         1 1ZG       0.038533
     43 HG12        10.8800    41.8840     2.4950 hc         1 1ZG       0.038533
     44 HG13         9.7650    43.0880     1.8670 hc         1 1ZG       0.038533
     45 HG21        10.0080    44.0720     5.4530 hc         1 1ZG       0.038533
     46 HG22         8.9580    43.4060     4.2130 hc         1 1ZG       0.038533
     47 HG23        10.1840    42.3850     4.9520 hc         1 1ZG       0.038533
     48 HA1         14.4580    40.5720     5.4470 h1         1 1ZG       0.069700
     49 HB2         13.2200    39.6180     7.7220 hc         1 1ZG       0.072200
     50 HB3         14.4180    40.9070     7.7590 hc         1 1ZG       0.072200
     51 HG2         11.3860    41.2450     7.7010 hc         1 1ZG       0.047700
     52 HG3         12.5230    42.0080     8.8090 hc         1 1ZG       0.047700
     53 HD2         13.3810    43.4580     7.0870 h1         1 1ZG       0.027200
     54 HD3         11.6790    43.3580     6.6330 h1         1 1ZG       0.027200
     55 HN2         14.0980    38.4310     5.1850 hn         1 1ZG       0.322500
     56 HA2         11.3890    37.3910     4.8350 h1         1 1ZG       0.052700
     57 HB1         13.8150    36.5250     3.2110 hc         1 1ZG       0.054700
     58 HB21        12.2260    35.7840     3.1840 hc         1 1ZG       0.054700
     59 HD1         10.2390    37.2020     2.3730 ha         1 1ZG       0.108000
     60 HD21        14.2980    38.4240     1.8370 ha         1 1ZG       0.108000
     61 HE1          9.5210    38.8220     0.6640 ha         1 1ZG       0.083500
     62 HE2         13.5870    40.0480     0.1270 ha         1 1ZG       0.083500
     63 HZ          11.1920    40.2590    -0.4690 ha         1 1ZG       0.082000
@<TRIPOS>BOND
     1     1     2 1   
     2     1     3 1   
     3     1     4 1   
     4     4     5 1   
     5     4    35 1   
     6     4    36 1   
     7     5     6 1   
     8     5    37 1   
     9     5    38 1   
    10     6     7 2   
    11     6     8 1   
    12     8     9 1   
    13     8    39 1   
    14     9    10 1   
    15     9    12 1   
    16     9    40 1   
    17    10    11 2   
    18    10    15 1   
    19    12    13 1   
    20    12    14 1   
    21    12    41 1   
    22    13    42 1   
    23    13    43 1   
    24    13    44 1   
    25    14    45 1   
    26    14    46 1   
    27    14    47 1   
    28    15    16 1   
    29    15    21 1   
    30    16    17 1   
    31    16    19 1   
    32    16    48 1   
    33    17    18 2   
    34    17    22 1   
    35    19    20 1   
    36    19    49 1   
    37    19    50 1   
    38    20    21 1   
    39    20    51 1   
    40    20    52 1   
    41    21    53 1   
    42    21    54 1   
    43    22    23 1   
    44    22    55 1   
    45    23    24 1   
    46    23    27 1   
    47    23    56 1   
    48    24    25 1   
    49    24    26 1   
    50    24    34 1   
    51    27    28 1   
    52    27    57 1   
    53    27    58 1   
    54    28    29 ar  
    55    28    30 ar  
    56    29    31 ar  
    57    29    59 1   
    58    30    32 ar  
    59    30    60 1   
    60    31    33 ar  
    61    31    61 1   
    62    32    33 ar  
    63    32    62 1   
    64    33    63 1   
@<TRIPOS>SUBSTRUCTURE
     1 1ZG         1 TEMP              0 ****  ****    0 ROOT
