@<TRIPOS>MOLECULE
1ZK
  121   125     1     0     0
SMALL
No Charge or Current Charge


@<TRIPOS>ATOM
      1 C           -5.5230    -0.2360     0.4920 c          1 1ZK       0.595100
      2 CA          -6.7290    -0.0770    -0.4650 c3         1 1ZK       0.079600
      3 C1          -9.2020     0.1600    -0.4090 ca         1 1ZK       0.131100
      4 C2          -9.2800     0.2280    -1.8190 ca         1 1ZK      -0.199000
      5 C3         -10.5240     0.3720    -2.4550 ca         1 1ZK      -0.071000
      6 C4         -11.6990     0.4500    -1.6920 ca         1 1ZK      -0.116000
      7 C4A        -11.6380     0.3840    -0.2890 ca         1 1ZK      -0.008000
      8 C5         -12.8230     0.4630     0.4670 ca         1 1ZK      -0.097000
      9 C6         -12.7730     0.3980     1.8690 ca         1 1ZK      -0.093000
     10 C7         -11.5370     0.2540     2.5200 ca         1 1ZK      -0.115000
     11 C8         -10.3500     0.1740     1.7720 ca         1 1ZK      -0.094000
     12 C1A        -10.3880     0.2390     0.3600 ca         1 1ZK      -0.052000
     13 O           -5.6220    -0.2570     1.7130 o          1 1ZK      -0.583100
     14 O1          -7.9890     0.0180     0.2420 os         1 1ZK      -0.339100
     15 N           -4.2990    -0.3460    -0.1410 ns         1 1ZK      -0.515900
     16 CA1         -2.9950    -0.5320     0.5460 c3         1 1ZK       0.023700
     17 C9          -1.8850     0.2960    -0.1630 c          1 1ZK       0.608100
     18 O2          -2.0280     0.7820    -1.2790 o          1 1ZK      -0.574100
     19 CB          -2.6120    -2.0340     0.6190 c3         1 1ZK      -0.039100
     20 CG          -3.6260    -2.8830     1.3430 cc         1 1ZK      -0.106300
     21 ND1         -4.5470    -3.7220     0.7060 na         1 1ZK      -0.114700
     22 CD2         -3.8300    -2.9940     2.7050 cd         1 1ZK      -0.144000
     23 CE1         -5.3290    -4.3410     1.6680 cc         1 1ZK      -0.042300
     24 NE2         -4.8710    -3.8810     2.8750 na         1 1ZK      -0.055000
     25 N1          -0.7240     0.4580     0.5650 ns         1 1ZK      -0.496900
     26 CA2          0.4850     1.1460     0.0880 c3         1 1ZK       0.086700
     27 CB1          0.8040     2.3160     1.0620 c3         1 1ZK      -0.083400
     28 CG1          1.8900     3.3460     0.6120 c6         1 1ZK      -0.056700
     29 CD1          2.1820     4.3620     1.7520 c6         1 1ZK      -0.074400
     30 CD21         1.4910     4.0990    -0.6920 c6         1 1ZK      -0.074400
     31 CE11         3.2570     5.3950     1.3360 c6         1 1ZK      -0.072900
     32 CE2          2.5440     5.1590    -1.1010 c6         1 1ZK      -0.072900
     33 CZ           2.8350     6.1480     0.0530 c6         1 1ZK      -0.076400
     34 CH           1.6830     0.1580    -0.1250 c3         1 1ZK       0.114300
     35 OH           1.9400    -0.5830     1.0810 oh         1 1ZK      -0.648000
     36 CB11         1.4820    -0.8730    -1.2920 c3         1 1ZK       0.156300
     37 C10          2.7860    -1.6340    -1.6950 c3         1 1ZK      -0.170700
     38 C11          2.6600    -2.6660    -2.8760 c3         1 1ZK      -0.051700
     39 CG11         2.1340    -4.0580    -2.4410 c3         1 1ZK      -0.091100
     40 CG2          1.8810    -2.1370    -4.1070 c3         1 1ZK      -0.091100
     41 OB1          0.5000    -1.8440    -0.8910 oh         1 1ZK      -0.676000
     42 CC           3.9340    -0.6390    -1.9670 c          1 1ZK       0.603100
     43 O3           3.9010     0.1750    -2.8760 o          1 1ZK      -0.610100
     44 N2           5.0020    -0.7370    -1.1050 ns         1 1ZK      -0.477900
     45 CA3          6.2470     0.0670    -1.1660 c3         1 1ZK       0.023700
     46 CD           7.4640    -0.8180    -0.7530 c          1 1ZK       0.590100
     47 O4           7.3460    -1.9710    -0.3550 o          1 1ZK      -0.615100
     48 CB2          6.1520     1.4090    -0.3550 c3         1 1ZK      -0.060700
     49 CG12         5.5380     1.2820     1.0720 c3         1 1ZK      -0.073400
     50 CG21         5.4230     2.5080    -1.1620 c3         1 1ZK      -0.091100
     51 CD11         6.3210     0.3810     2.0490 c3         1 1ZK      -0.100100
     52 N3           8.7020    -0.2200    -0.8590 ns         1 1ZK      -0.491900
     53 CM           9.9570    -0.8180    -0.3730 c3         1 1ZK       0.056700
     54 C21         10.1490    -0.6280     1.1320 ca         1 1ZK       0.309300
     55 C31          9.6970    -1.6010     2.0450 ca         1 1ZK      -0.133000
     56 C41          9.8610    -1.3800     3.4230 ca         1 1ZK      -0.076000
     57 C51         10.4750    -0.1850     3.8310 ca         1 1ZK      -0.156000
     58 C61         10.8980     0.7360     2.8570 ca         1 1ZK       0.334900
     59 N11         10.7400     0.5260     1.5290 nb         1 1ZK      -0.674000
     60 HA1         -6.5530     0.8240    -1.0660 h1         1 1ZK       0.064200
     61 HA2         -6.7280    -0.9430    -1.1380 h1         1 1ZK       0.064200
     62 H2          -8.3900     0.1710    -2.4390 ha         1 1ZK       0.115000
     63 H3         -10.5780     0.4240    -3.5400 ha         1 1ZK       0.123000
     64 H4         -12.6570     0.5620    -2.1950 ha         1 1ZK       0.127000
     65 H5         -13.7840     0.5750    -0.0300 ha         1 1ZK       0.124000
     66 H6         -13.6910     0.4590     2.4500 ha         1 1ZK       0.123000
     67 H7         -11.4990     0.2040     3.6060 ha         1 1ZK       0.111000
     68 H8          -9.4050     0.0630     2.2970 ha         1 1ZK       0.111000
     69 H           -4.2980    -0.2670    -1.1530 hn         1 1ZK       0.349500
     70 HA          -3.0710    -0.1390     1.5680 h1         1 1ZK       0.093700
     71 HB2         -2.4610    -2.4140    -0.3990 hc         1 1ZK       0.094200
     72 HB3         -1.6430    -2.1360     1.1220 hc         1 1ZK       0.094200
     73 HD1         -4.6310    -3.8610    -0.2980 hn         1 1ZK       0.409000
     74 HD2         -3.3250    -2.5090     3.5360 h4         1 1ZK       0.209000
     75 HE1         -6.1360    -5.0510     1.5010 h5         1 1ZK       0.236000
     76 HE2         -5.2500    -4.1580     3.7770 hn         1 1ZK       0.413000
     77 H1          -0.6880     0.0180     1.4760 hn         1 1ZK       0.306500
     78 HA3          0.2570     1.5890    -0.8900 h1         1 1ZK       0.099700
     79 HB21        -0.1300     2.8620     1.2510 hc         1 1ZK       0.045200
     80 HB31         1.0910     1.8860     2.0300 hc         1 1ZK       0.045200
     81 HG           2.8150     2.7850     0.4300 hc         1 1ZK       0.054700
     82 HD12         1.2570     4.8860     2.0310 hc         1 1ZK       0.039700
     83 HD13         2.5200     3.8280     2.6510 hc         1 1ZK       0.039700
     84 HD23         1.3690     3.3900    -1.5220 hc         1 1ZK       0.039700
     85 HD22         0.5160     4.5870    -0.5550 hc         1 1ZK       0.039700
     86 HE12         3.4190     6.1120     2.1520 hc         1 1ZK       0.042950
     87 HE13         4.2170     4.8860     1.1720 hc         1 1ZK       0.042950
     88 HE23         3.4730     4.6620    -1.4050 hc         1 1ZK       0.042950
     89 HE22         2.1900     5.7120    -1.9820 hc         1 1ZK       0.042950
     90 HZ2          1.9400     6.7530     0.2560 hc         1 1ZK       0.043200
     91 HZ3          3.6260     6.8480    -0.2470 hc         1 1ZK       0.043200
     92 HH           2.5520     0.7770    -0.3760 h1         1 1ZK       0.105700
     93 HO           1.4190    -1.4090     0.9610 ho         1 1ZK       0.427000
     94 HB1          1.1300    -0.3060    -2.1680 h1         1 1ZK       0.115700
     95 H10          3.0930    -2.2130    -0.8150 hc         1 1ZK       0.063700
     96 HB           3.6850    -2.8520    -3.2250 hc         1 1ZK       0.066700
     97 HG11         1.0660    -4.0400    -2.2000 hc         1 1ZK       0.038533
     98 HG12         2.2750    -4.7850    -3.2510 hc         1 1ZK       0.038533
     99 HG13         2.6820    -4.4290    -1.5660 hc         1 1ZK       0.038533
    100 HG21         2.2920    -1.1850    -4.4630 hc         1 1ZK       0.038533
    101 HG22         1.9440    -2.8530    -4.9350 hc         1 1ZK       0.038533
    102 HG23         0.8200    -1.9880    -3.8750 hc         1 1ZK       0.038533
    103 HOB1         0.4510    -2.5080    -1.6100 ho         1 1ZK       0.437000
    104 H9           4.9490    -1.4650    -0.4000 hn         1 1ZK       0.326500
    105 HA4          6.4390     0.3190    -2.2170 h1         1 1ZK       0.094700
    106 H11          7.1700     1.7940    -0.2200 hc         1 1ZK       0.054700
    107 HG14         5.4820     2.2840     1.5170 hc         1 1ZK       0.040200
    108 HG15         4.5040     0.9230     1.0070 hc         1 1ZK       0.040200
    109 HG24         4.3640     2.2640    -1.2970 hc         1 1ZK       0.039367
    110 HG25         5.4870     3.4720    -0.6440 hc         1 1ZK       0.039367
    111 HG26         5.8760     2.6310    -2.1530 hc         1 1ZK       0.039367
    112 HD11         6.2450    -0.6740     1.7650 hc         1 1ZK       0.040367
    113 HD14         7.3810     0.6630     2.0800 hc         1 1ZK       0.040367
    114 HD15         5.9140     0.4800     3.0620 hc         1 1ZK       0.040367
    115 HN1          8.7260     0.7340    -1.2000 hn         1 1ZK       0.325500
    116 HM1          9.9660    -1.8900    -0.6110 h1         1 1ZK       0.070700
    117 HM2         10.7970    -0.3570    -0.9070 h1         1 1ZK       0.070700
    118 H31          9.2190    -2.5080     1.6870 ha         1 1ZK       0.135000
    119 H41          9.5200    -2.1120     4.1520 ha         1 1ZK       0.122000
    120 H51         10.6240     0.0320     4.8850 ha         1 1ZK       0.127000
    121 H61         11.3760     1.6710     3.1480 h4         1 1ZK       0.021100
@<TRIPOS>BOND
     1     1     2 1   
     2     1    13 2   
     3     1    15 1   
     4     2    14 1   
     5     2    60 1   
     6     2    61 1   
     7     3     4 ar  
     8     3    12 ar  
     9     3    14 1   
    10     4     5 ar  
    11     4    62 1   
    12     5     6 ar  
    13     5    63 1   
    14     6     7 ar  
    15     6    64 1   
    16     7     8 ar  
    17     7    12 ar  
    18     8     9 ar  
    19     8    65 1   
    20     9    10 ar  
    21     9    66 1   
    22    10    11 ar  
    23    10    67 1   
    24    11    12 ar  
    25    11    68 1   
    26    15    16 1   
    27    15    69 1   
    28    16    17 1   
    29    16    19 1   
    30    16    70 1   
    31    17    18 2   
    32    17    25 1   
    33    19    20 1   
    34    19    71 1   
    35    19    72 1   
    36    20    21 1   
    37    20    22 2   
    38    21    23 2   
    39    21    73 1   
    40    22    24 1   
    41    22    74 1   
    42    23    24 1   
    43    23    75 1   
    44    24    76 1   
    45    25    26 1   
    46    25    77 1   
    47    26    27 1   
    48    26    34 1   
    49    26    78 1   
    50    27    28 1   
    51    27    79 1   
    52    27    80 1   
    53    28    29 1   
    54    28    30 1   
    55    28    81 1   
    56    29    31 1   
    57    29    82 1   
    58    29    83 1   
    59    30    32 1   
    60    30    84 1   
    61    30    85 1   
    62    31    33 1   
    63    31    86 1   
    64    31    87 1   
    65    32    33 1   
    66    32    88 1   
    67    32    89 1   
    68    33    90 1   
    69    33    91 1   
    70    34    35 1   
    71    34    36 1   
    72    34    92 1   
    73    35    93 1   
    74    36    37 1   
    75    36    41 1   
    76    36    94 1   
    77    37    38 1   
    78    37    42 1   
    79    37    95 1   
    80    38    39 1   
    81    38    40 1   
    82    38    96 1   
    83    39    97 1   
    84    39    98 1   
    85    39    99 1   
    86    40   100 1   
    87    40   101 1   
    88    40   102 1   
    89    41   103 1   
    90    42    43 2   
    91    42    44 1   
    92    44    45 1   
    93    44   104 1   
    94    45    46 1   
    95    45    48 1   
    96    45   105 1   
    97    46    47 2   
    98    46    52 1   
    99    48    49 1   
   100    48    50 1   
   101    48   106 1   
   102    49    51 1   
   103    49   107 1   
   104    49   108 1   
   105    50   109 1   
   106    50   110 1   
   107    50   111 1   
   108    51   112 1   
   109    51   113 1   
   110    51   114 1   
   111    52    53 1   
   112    52   115 1   
   113    53    54 1   
   114    53   116 1   
   115    53   117 1   
   116    54    55 ar  
   117    54    59 ar  
   118    55    56 ar  
   119    55   118 1   
   120    56    57 ar  
   121    56   119 1   
   122    57    58 ar  
   123    57   120 1   
   124    58    59 ar  
   125    58   121 1   
@<TRIPOS>SUBSTRUCTURE
     1 1ZK         1 TEMP              0 ****  ****    0 ROOT
