@<TRIPOS>MOLECULE
1ZK
  121   125     1     0     0
SMALL
abcg2


@<TRIPOS>ATOM
      1 C           -5.6040     0.2670     0.0980 c          1 1ZK       0.595100
      2 CA          -6.4330     0.0920    -1.1630 c3         1 1ZK       0.079600
      3 C1          -8.6710    -0.4700    -1.6830 ca         1 1ZK       0.131100
      4 C2          -8.4820    -0.3240    -3.0340 ca         1 1ZK      -0.199000
      5 C3          -9.5570    -0.5420    -3.9230 ca         1 1ZK      -0.071000
      6 C4         -10.7920    -0.8990    -3.4660 ca         1 1ZK      -0.116000
      7 C4A        -11.0130    -1.0580    -2.0760 ca         1 1ZK      -0.008000
      8 C5         -12.2790    -1.4280    -1.5650 ca         1 1ZK      -0.097000
      9 C6         -12.4790    -1.5760    -0.2200 ca         1 1ZK      -0.093000
     10 C7         -11.4180    -1.3590     0.6810 ca         1 1ZK      -0.115000
     11 C8         -10.1790    -1.0010     0.2210 ca         1 1ZK      -0.094000
     12 C1A         -9.9470    -0.8430    -1.1650 ca         1 1ZK      -0.052000
     13 O           -6.0990     0.5940     1.1590 o          1 1ZK      -0.583100
     14 O1          -7.7170    -0.2910    -0.7530 os         1 1ZK      -0.339100
     15 N           -4.2910     0.0420    -0.0880 ns         1 1ZK      -0.515900
     16 CA1         -3.3020     0.2130     0.9410 c3         1 1ZK       0.023700
     17 C9          -2.0290     0.7960     0.3240 c          1 1ZK       0.608100
     18 O2          -1.8440     0.7750    -0.8810 o          1 1ZK      -0.574100
     19 CB          -2.9860    -1.1270     1.6420 c3         1 1ZK      -0.039100
     20 CG          -4.2140    -1.7190     2.2270 cc         1 1ZK      -0.106300
     21 ND1         -5.0790    -2.5160     1.5180 na         1 1ZK      -0.114700
     22 CD2         -4.7880    -1.5460     3.4450 cd         1 1ZK      -0.144000
     23 CE1         -6.1360    -2.8130     2.2550 cc         1 1ZK      -0.042300
     24 NE2         -5.9710    -2.2320     3.4290 na         1 1ZK      -0.055000
     25 N1          -1.1690     1.2970     1.2190 ns         1 1ZK      -0.496900
     26 CA2          0.1390     1.8450     0.8940 c3         1 1ZK       0.086700
     27 CB1          0.3730     3.0560     1.8000 c3         1 1ZK      -0.083400
     28 CG1          1.6620     3.8420     1.5640 c6         1 1ZK      -0.056700
     29 CD1          1.7510     4.9780     2.5850 c6         1 1ZK      -0.074400
     30 CD21         1.7640     4.3870     0.1380 c6         1 1ZK      -0.074400
     31 CE11         2.9870     5.8450     2.3860 c6         1 1ZK      -0.072900
     32 CE2          2.9740     5.2980    -0.0600 c6         1 1ZK      -0.072900
     33 CZ           3.0250     6.4150     0.9730 c6         1 1ZK      -0.076400
     34 CH           1.2640     0.8040     0.9960 c3         1 1ZK       0.114300
     35 OH           1.4730     0.3620     2.3180 oh         1 1ZK      -0.648000
     36 CB11         1.1020    -0.3870     0.0280 c3         1 1ZK       0.156300
     37 C10          2.4360    -1.1080    -0.2030 c3         1 1ZK      -0.170700
     38 C11          2.3690    -2.3680    -1.1160 c3         1 1ZK      -0.051700
     39 CG11         1.9600    -3.6330    -0.3630 c3         1 1ZK      -0.091100
     40 CG2          1.5080    -2.1750    -2.3600 c3         1 1ZK      -0.091100
     41 OB1          0.1070    -1.2770     0.4850 oh         1 1ZK      -0.676000
     42 CC           3.4490    -0.1560    -0.8170 c          1 1ZK       0.603100
     43 O3           3.1500     0.6550    -1.6830 o          1 1ZK      -0.610100
     44 N2           4.7040    -0.3110    -0.3530 ns         1 1ZK      -0.477900
     45 CA3          5.8580     0.3280    -0.9200 c3         1 1ZK       0.023700
     46 CD           6.8090    -0.7360    -1.4770 c          1 1ZK       0.590100
     47 O4           6.5830    -1.9310    -1.3670 o          1 1ZK      -0.615100
     48 CB2          6.4970     1.3380     0.0620 c3         1 1ZK      -0.060700
     49 CG12         6.8530     0.7610     1.4340 c3         1 1ZK      -0.073400
     50 CG21         5.5580     2.5300     0.2280 c3         1 1ZK      -0.091100
     51 CD11         7.9220    -0.3240     1.4560 c3         1 1ZK      -0.100100
     52 N3           7.8740    -0.2540    -2.1350 ns         1 1ZK      -0.491900
     53 CM           8.9110    -1.1110    -2.6680 c3         1 1ZK       0.056700
     54 C21          9.8790    -1.5400    -1.5950 ca         1 1ZK       0.309300
     55 C31          9.8480    -2.8260    -1.0700 ca         1 1ZK      -0.133000
     56 C41         10.7290    -3.1550    -0.0520 ca         1 1ZK      -0.076000
     57 C51         11.6100    -2.1870     0.4060 ca         1 1ZK      -0.156000
     58 C61         11.5690    -0.9330    -0.1860 ca         1 1ZK       0.334900
     59 N11         10.7290    -0.6130    -1.1620 nb         1 1ZK      -0.674000
     60 HA1         -6.4490     1.0470    -1.7040 h1         1 1ZK       0.064200
     61 HA2         -5.9840    -0.6540    -1.8280 h1         1 1ZK       0.064200
     62 H2          -7.5210    -0.0440    -3.4440 ha         1 1ZK       0.115000
     63 H3          -9.3830    -0.4210    -4.9840 ha         1 1ZK       0.123000
     64 H4         -11.6110    -1.0640    -4.1550 ha         1 1ZK       0.127000
     65 H5         -13.0930    -1.5930    -2.2610 ha         1 1ZK       0.124000
     66 H6         -13.4530    -1.8610     0.1560 ha         1 1ZK       0.123000
     67 H7         -11.5850    -1.4760     1.7440 ha         1 1ZK       0.111000
     68 H8          -9.3740    -0.8350     0.9240 ha         1 1ZK       0.111000
     69 H           -3.9560    -0.2210    -1.0040 hn         1 1ZK       0.349500
     70 HA          -3.6960     0.9060     1.6860 h1         1 1ZK       0.093700
     71 HB2         -2.5300    -1.8170     0.9310 hc         1 1ZK       0.094200
     72 HB3         -2.2580    -0.9670     2.4370 hc         1 1ZK       0.094200
     73 HD1         -4.9320    -2.8560     0.5780 hn         1 1ZK       0.409000
     74 HD2         -4.4570    -0.9850     4.3010 h4         1 1ZK       0.209000
     75 HE1         -6.9630    -3.4340     1.9600 h5         1 1ZK       0.236000
     76 HE2         -6.6250    -2.2960     4.1960 hn         1 1ZK       0.413000
     77 H1          -1.4610     1.3450     2.1830 hn         1 1ZK       0.306500
     78 HA3          0.1010     2.1780    -0.1460 h1         1 1ZK       0.099700
     79 HB21        -0.4750     3.7360     1.6710 hc         1 1ZK       0.045200
     80 HB31         0.3470     2.7300     2.8450 hc         1 1ZK       0.045200
     81 HG           2.5230     3.1820     1.7370 hc         1 1ZK       0.054700
     82 HD12         0.8550     5.6040     2.4980 hc         1 1ZK       0.039700
     83 HD13         1.7370     4.5600     3.5960 hc         1 1ZK       0.039700
     84 HD23         1.8180     3.5640    -0.5820 hc         1 1ZK       0.039700
     85 HD22         0.8480     4.9410    -0.0990 hc         1 1ZK       0.039700
     86 HE12         3.0020     6.6510     3.1240 hc         1 1ZK       0.042950
     87 HE13         3.8870     5.2460     2.5610 hc         1 1ZK       0.042950
     88 HE23         3.8890     4.7020     0.0140 hc         1 1ZK       0.042950
     89 HE22         2.9610     5.7130    -1.0710 hc         1 1ZK       0.042950
     90 HZ2          2.1690     7.0850     0.8330 hc         1 1ZK       0.043200
     91 HZ3          3.9220     7.0240     0.8300 hc         1 1ZK       0.043200
     92 HH           2.1760     1.3370     0.7180 h1         1 1ZK       0.105700
     93 HO           0.6550    -0.0280     2.6480 ho         1 1ZK       0.427000
     94 HB1          0.7430     0.0030    -0.9260 h1         1 1ZK       0.115700
     95 H10          2.8190    -1.4310     0.7730 hc         1 1ZK       0.063700
     96 HB           3.3980    -2.5440    -1.4520 hc         1 1ZK       0.066700
     97 HG11         0.9140    -3.6140    -0.0620 hc         1 1ZK       0.038533
     98 HG12         2.0970    -4.5070    -1.0030 hc         1 1ZK       0.038533
     99 HG13         2.5700    -3.7830     0.5290 hc         1 1ZK       0.038533
    100 HG21         1.7810    -1.2770    -2.9130 hc         1 1ZK       0.038533
    101 HG22         1.6280    -3.0260    -3.0310 hc         1 1ZK       0.038533
    102 HG23         0.4490    -2.1080    -2.1060 hc         1 1ZK       0.038533
    103 HOB1         0.4660    -1.8080     1.2040 ho         1 1ZK       0.437000
    104 H9           4.8670    -1.0580     0.3040 hn         1 1ZK       0.326500
    105 HA4          5.5130     0.9010    -1.7850 h1         1 1ZK       0.094700
    106 H11          7.4190     1.7100    -0.3960 hc         1 1ZK       0.054700
    107 HG14         7.1960     1.5980     2.0490 hc         1 1ZK       0.040200
    108 HG15         5.9430     0.3980     1.9220 hc         1 1ZK       0.040200
    109 HG24         4.6170     2.2330     0.6960 hc         1 1ZK       0.039367
    110 HG25         6.0110     3.2940     0.8620 hc         1 1ZK       0.039367
    111 HG26         5.3200     2.9880    -0.7320 hc         1 1ZK       0.039367
    112 HD11         7.5950    -1.2530     0.9920 hc         1 1ZK       0.040367
    113 HD14         8.8290    -0.0020     0.9430 hc         1 1ZK       0.040367
    114 HD15         8.1980    -0.5640     2.4840 hc         1 1ZK       0.040367
    115 HN1          8.0250     0.7400    -2.1780 hn         1 1ZK       0.325500
    116 HM1          8.4590    -1.9780    -3.1480 h1         1 1ZK       0.070700
    117 HM2          9.4400    -0.5470    -3.4360 h1         1 1ZK       0.070700
    118 H31          9.1400    -3.5490    -1.4520 ha         1 1ZK       0.135000
    119 H41         10.7270    -4.1480     0.3780 ha         1 1ZK       0.122000
    120 H51         12.3150    -2.3930     1.1990 ha         1 1ZK       0.127000
    121 H61         12.2480    -0.1540     0.1420 h4         1 1ZK       0.021100
@<TRIPOS>BOND
     1     1     2 1   
     2     1    13 2   
     3     1    15 1   
     4     2    14 1   
     5     2    60 1   
     6     2    61 1   
     7     3     4 ar  
     8     3    12 ar  
     9     3    14 1   
    10     4     5 ar  
    11     4    62 1   
    12     5     6 ar  
    13     5    63 1   
    14     6     7 ar  
    15     6    64 1   
    16     7     8 ar  
    17     7    12 ar  
    18     8     9 ar  
    19     8    65 1   
    20     9    10 ar  
    21     9    66 1   
    22    10    11 ar  
    23    10    67 1   
    24    11    12 ar  
    25    11    68 1   
    26    15    16 1   
    27    15    69 1   
    28    16    17 1   
    29    16    19 1   
    30    16    70 1   
    31    17    18 2   
    32    17    25 1   
    33    19    20 1   
    34    19    71 1   
    35    19    72 1   
    36    20    21 1   
    37    20    22 2   
    38    21    23 2   
    39    21    73 1   
    40    22    24 1   
    41    22    74 1   
    42    23    24 1   
    43    23    75 1   
    44    24    76 1   
    45    25    26 1   
    46    25    77 1   
    47    26    27 1   
    48    26    34 1   
    49    26    78 1   
    50    27    28 1   
    51    27    79 1   
    52    27    80 1   
    53    28    29 1   
    54    28    30 1   
    55    28    81 1   
    56    29    31 1   
    57    29    82 1   
    58    29    83 1   
    59    30    32 1   
    60    30    84 1   
    61    30    85 1   
    62    31    33 1   
    63    31    86 1   
    64    31    87 1   
    65    32    33 1   
    66    32    88 1   
    67    32    89 1   
    68    33    90 1   
    69    33    91 1   
    70    34    35 1   
    71    34    36 1   
    72    34    92 1   
    73    35    93 1   
    74    36    37 1   
    75    36    41 1   
    76    36    94 1   
    77    37    38 1   
    78    37    42 1   
    79    37    95 1   
    80    38    39 1   
    81    38    40 1   
    82    38    96 1   
    83    39    97 1   
    84    39    98 1   
    85    39    99 1   
    86    40   100 1   
    87    40   101 1   
    88    40   102 1   
    89    41   103 1   
    90    42    43 2   
    91    42    44 1   
    92    44    45 1   
    93    44   104 1   
    94    45    46 1   
    95    45    48 1   
    96    45   105 1   
    97    46    47 2   
    98    46    52 1   
    99    48    49 1   
   100    48    50 1   
   101    48   106 1   
   102    49    51 1   
   103    49   107 1   
   104    49   108 1   
   105    50   109 1   
   106    50   110 1   
   107    50   111 1   
   108    51   112 1   
   109    51   113 1   
   110    51   114 1   
   111    52    53 1   
   112    52   115 1   
   113    53    54 1   
   114    53   116 1   
   115    53   117 1   
   116    54    55 ar  
   117    54    59 ar  
   118    55    56 ar  
   119    55   118 1   
   120    56    57 ar  
   121    56   119 1   
   122    57    58 ar  
   123    57   120 1   
   124    58    59 ar  
   125    58   121 1   
@<TRIPOS>SUBSTRUCTURE
     1 1ZK         1 TEMP              0 ****  ****    0 ROOT
