@<TRIPOS>MOLECULE
1ZN
   52    52     1     0     0
SMALL
abcg2


@<TRIPOS>ATOM
      1 C1          -2.1590    -0.6770     1.6930 c3         1 1ZN       0.146900
      2 O1          -2.6150     0.5960     1.3090 os         1 1ZN      -0.460000
      3 C2          -2.5750     0.8480    -0.0800 c3         1 1ZN       0.177300
      4 C3          -4.0020     1.0290    -0.6070 c3         1 1ZN      -0.048100
      5 C4          -4.8240    -0.2070    -0.3810 ca         1 1ZN      -0.070300
      6 C5          -5.6360    -0.3300     0.7440 ca         1 1ZN      -0.103500
      7 C6          -6.3530    -1.4950     0.9820 ca         1 1ZN      -0.114500
      8 C7          -6.2660    -2.5620     0.0980 ca         1 1ZN      -0.118000
      9 C8          -5.4590    -2.4520    -1.0280 ca         1 1ZN      -0.114500
     10 C9          -4.7470    -1.2840    -1.2630 ca         1 1ZN      -0.103500
     11 C10         -1.6680     2.0580    -0.3700 c3         1 1ZN      -0.022500
     12 C11         -2.1500     3.3450     0.3020 c3         1 1ZN      -0.077100
     13 C12         -0.2680     1.7390     0.0610 c2         1 1ZN      -0.255200
     14 C13          0.7930     1.4500    -0.7090 ce         1 1ZN      -0.042200
     15 C14          0.7620     1.4070    -2.2090 c3         1 1ZN      -0.056900
     16 C15          2.0620     1.1280    -0.0530 ce         1 1ZN      -0.241000
     17 C16          3.1990     0.7940    -0.6680 c2         1 1ZN      -0.141200
     18 C17          4.4720     0.4060     0.0230 c3         1 1ZN       0.200700
     19 N1           5.5430     1.2830    -0.4500 n8         1 1ZN      -1.004200
     20 C18          4.7420    -1.0960    -0.1840 c3         1 1ZN      -0.225700
     21 C19          3.6870    -1.9530     0.5170 c3         1 1ZN      -0.062100
     22 C20          6.1300    -1.5280     0.3310 c          1 1ZN       0.710000
     23 OXT          6.7280    -2.4060    -0.3230 o          1 1ZN      -0.732000
     24 O3           6.5310    -0.9990     1.3910 o          1 1ZN      -0.732000
     25 H1          -2.2680    -0.7550     2.7750 h1         1 1ZN       0.030367
     26 H2          -2.7380    -1.4840     1.2320 h1         1 1ZN       0.030367
     27 H3          -1.1020    -0.8310     1.4440 h1         1 1ZN       0.030367
     28 H4          -2.1350    -0.0100    -0.6080 h1         1 1ZN       0.043700
     29 H5          -4.4750     1.8820    -0.1150 hc         1 1ZN       0.052200
     30 H6          -3.9490     1.2630    -1.6730 hc         1 1ZN       0.052200
     31 H7          -5.7100     0.4950     1.4420 ha         1 1ZN       0.113000
     32 H8          -6.9810    -1.5700     1.8610 ha         1 1ZN       0.107000
     33 H9          -6.8250    -3.4710     0.2820 ha         1 1ZN       0.106000
     34 H10         -5.3860    -3.2770    -1.7260 ha         1 1ZN       0.107000
     35 H11         -4.1190    -1.2100    -2.1440 ha         1 1ZN       0.113000
     36 H12         -1.7020     2.2110    -1.4520 hc         1 1ZN       0.043700
     37 H13         -2.1900     3.2410     1.3870 hc         1 1ZN       0.032033
     38 H14         -1.4700     4.1670     0.0740 hc         1 1ZN       0.032033
     39 H15         -3.1400     3.6380    -0.0470 hc         1 1ZN       0.032033
     40 H16         -0.1150     1.7290     1.1380 ha         1 1ZN       0.177000
     41 H17          1.5150     2.0720    -2.6370 hc         1 1ZN       0.036033
     42 H18          0.9860     0.4030    -2.5750 hc         1 1ZN       0.036033
     43 H19         -0.2020     1.6960    -2.6210 hc         1 1ZN       0.036033
     44 H20          2.0490     1.1510     1.0340 ha         1 1ZN       0.172000
     45 H21          3.2350     0.7590    -1.7550 ha         1 1ZN       0.151000
     46 H22          4.3570     0.5840     1.0980 h1         1 1ZN       0.072700
     47 H23          6.3970     1.0230     0.0300 hn         1 1ZN       0.399500
     48 H24          5.7140     1.1020    -1.4330 hn         1 1ZN       0.399500
     49 H25          4.6950    -1.3040    -1.2610 hc         1 1ZN       0.029700
     50 H26          3.7220    -1.7940     1.5980 hc         1 1ZN       0.017367
     51 H27          2.6790    -1.7100     0.1800 hc         1 1ZN       0.017367
     52 H28          3.8540    -3.0150     0.3310 hc         1 1ZN       0.017367
@<TRIPOS>BOND
     1     1     2 1   
     2     1    25 1   
     3     1    26 1   
     4     1    27 1   
     5     2     3 1   
     6     3     4 1   
     7     3    11 1   
     8     3    28 1   
     9     4     5 1   
    10     4    29 1   
    11     4    30 1   
    12     5     6 ar  
    13     5    10 ar  
    14     6     7 ar  
    15     6    31 1   
    16     7     8 ar  
    17     7    32 1   
    18     8     9 ar  
    19     8    33 1   
    20     9    10 ar  
    21     9    34 1   
    22    10    35 1   
    23    11    12 1   
    24    11    13 1   
    25    11    36 1   
    26    12    37 1   
    27    12    38 1   
    28    12    39 1   
    29    13    14 2   
    30    13    40 1   
    31    14    15 1   
    32    14    16 1   
    33    15    41 1   
    34    15    42 1   
    35    15    43 1   
    36    16    17 2   
    37    16    44 1   
    38    17    18 1   
    39    17    45 1   
    40    18    19 1   
    41    18    20 1   
    42    18    46 1   
    43    19    47 1   
    44    19    48 1   
    45    20    21 1   
    46    20    22 1   
    47    20    49 1   
    48    21    50 1   
    49    21    51 1   
    50    21    52 1   
    51    22    23 1   
    52    22    24 1   
@<TRIPOS>SUBSTRUCTURE
     1 1ZN         1 TEMP              0 ****  ****    0 ROOT
