@<TRIPOS>MOLECULE
1ZN
   52    52     1     0     0
SMALL
No Charge or Current Charge


@<TRIPOS>ATOM
      1 C1          -2.9620    -0.3330     2.3110 c3         1 1ZN       0.146900
      2 O1          -2.4480     0.8850     1.7390 os         1 1ZN      -0.460000
      3 C2          -2.5130     1.0030     0.2960 c3         1 1ZN       0.177300
      4 C3          -3.9950     1.1390    -0.1730 c3         1 1ZN      -0.048100
      5 C4          -4.7430    -0.1850    -0.3310 ca         1 1ZN      -0.070300
      6 C5          -5.9600    -0.3990     0.3480 ca         1 1ZN      -0.103500
      7 C6          -6.6530    -1.6130     0.2000 ca         1 1ZN      -0.114500
      8 C7          -6.1400    -2.6190    -0.6350 ca         1 1ZN      -0.118000
      9 C8          -4.9350    -2.4080    -1.3260 ca         1 1ZN      -0.114500
     10 C9          -4.2410    -1.1950    -1.1780 ca         1 1ZN      -0.103500
     11 C10         -1.6240     2.2190    -0.1160 c3         1 1ZN      -0.022500
     12 C11         -2.0780     3.5630     0.5080 c3         1 1ZN      -0.077100
     13 C12         -0.1520     1.9510     0.1840 c2         1 1ZN      -0.255200
     14 C13          0.7440     1.2650    -0.5660 ce         1 1ZN      -0.042200
     15 C14          0.3900     0.5920    -1.8900 c3         1 1ZN      -0.056900
     16 C15          2.1270     1.1090    -0.0740 ce         1 1ZN      -0.241000
     17 C16          3.1520     0.5270    -0.7420 c2         1 1ZN      -0.141200
     18 C17          4.5650     0.3620    -0.2180 c3         1 1ZN       0.200700
     19 N1           5.4340     1.2930    -0.9500 n8         1 1ZN      -1.004200
     20 C18          5.0900    -1.0890    -0.3480 c3         1 1ZN      -0.225700
     21 C19          4.1150    -2.1350     0.2550 c3         1 1ZN      -0.062100
     22 C20          6.4850    -1.2350     0.2970 c          1 1ZN       0.710000
     23 OXT          7.4180    -1.5630    -0.4220 o          1 1ZN      -0.732000
     24 O3           6.6040    -1.0260     1.4950 o          1 1ZN      -0.732000
     25 H1          -2.6820    -0.4000     3.3700 h1         1 1ZN       0.030367
     26 H2          -4.0560    -0.3660     2.2560 h1         1 1ZN       0.030367
     27 H3          -2.5540    -1.2120     1.7950 h1         1 1ZN       0.030367
     28 H4          -2.0750     0.1130    -0.1730 h1         1 1ZN       0.043700
     29 H5          -4.5270     1.8060     0.5170 hc         1 1ZN       0.052200
     30 H6          -4.0090     1.6480    -1.1440 hc         1 1ZN       0.052200
     31 H7          -6.3680     0.3730     0.9960 ha         1 1ZN       0.113000
     32 H8          -7.5880    -1.7730     0.7320 ha         1 1ZN       0.107000
     33 H9          -6.6760    -3.5580    -0.7500 ha         1 1ZN       0.106000
     34 H10         -4.5400    -3.1830    -1.9790 ha         1 1ZN       0.107000
     35 H11         -3.3160    -1.0400    -1.7270 ha         1 1ZN       0.113000
     36 H12         -1.7320     2.3480    -1.2000 hc         1 1ZN       0.043700
     37 H13         -2.0290     3.5300     1.6030 hc         1 1ZN       0.032033
     38 H14         -1.4310     4.3790     0.1640 hc         1 1ZN       0.032033
     39 H15         -3.1050     3.8080     0.2160 hc         1 1ZN       0.032033
     40 H16          0.1700     2.3780     1.1350 ha         1 1ZN       0.177000
     41 H17          0.8450     1.1240    -2.7340 hc         1 1ZN       0.036033
     42 H18          0.7460    -0.4440    -1.9170 hc         1 1ZN       0.036033
     43 H19         -0.6880     0.5480    -2.0770 hc         1 1ZN       0.036033
     44 H20          2.3210     1.5100     0.9220 ha         1 1ZN       0.172000
     45 H21          3.0140     0.1180    -1.7420 ha         1 1ZN       0.151000
     46 H22          4.5800     0.6410     0.8470 h1         1 1ZN       0.072700
     47 H23          6.4020     1.1390    -0.6490 hn         1 1ZN       0.399500
     48 H24          5.4440     1.0180    -1.9370 hn         1 1ZN       0.399500
     49 H25          5.1840    -1.3230    -1.4170 hc         1 1ZN       0.029700
     50 H26          3.9060    -1.9160     1.3090 hc         1 1ZN       0.017367
     51 H27          3.1620    -2.1490    -0.2880 hc         1 1ZN       0.017367
     52 H28          4.5470    -3.1410     0.1930 hc         1 1ZN       0.017367
@<TRIPOS>BOND
     1     1     2 1   
     2     1    25 1   
     3     1    26 1   
     4     1    27 1   
     5     2     3 1   
     6     3     4 1   
     7     3    11 1   
     8     3    28 1   
     9     4     5 1   
    10     4    29 1   
    11     4    30 1   
    12     5     6 ar  
    13     5    10 ar  
    14     6     7 ar  
    15     6    31 1   
    16     7     8 ar  
    17     7    32 1   
    18     8     9 ar  
    19     8    33 1   
    20     9    10 ar  
    21     9    34 1   
    22    10    35 1   
    23    11    12 1   
    24    11    13 1   
    25    11    36 1   
    26    12    37 1   
    27    12    38 1   
    28    12    39 1   
    29    13    14 2   
    30    13    40 1   
    31    14    15 1   
    32    14    16 1   
    33    15    41 1   
    34    15    42 1   
    35    15    43 1   
    36    16    17 2   
    37    16    44 1   
    38    17    18 1   
    39    17    45 1   
    40    18    19 1   
    41    18    20 1   
    42    18    46 1   
    43    19    47 1   
    44    19    48 1   
    45    20    21 1   
    46    20    22 1   
    47    20    49 1   
    48    21    50 1   
    49    21    51 1   
    50    21    52 1   
    51    22    23 1   
    52    22    24 1   
@<TRIPOS>SUBSTRUCTURE
     1 1ZN         1 TEMP              0 ****  ****    0 ROOT
