@<TRIPOS>MOLECULE
1ZQ
   33    35     1     0     0
SMALL
No Charge or Current Charge


@<TRIPOS>ATOM
      1 O01         -4.5910     1.1680    -0.1530 oh         1 1ZQ      -0.669300
      2 C02         -3.4630     0.4410    -0.0700 ca         1 1ZQ       0.514300
      3 C03         -3.5010    -0.9680     0.1060 ca         1 1ZQ       0.085100
      4 O04         -4.6900    -1.6550     0.1990 oh         1 1ZQ      -0.524100
      5 C05         -2.2860    -1.6600     0.1390 ca         1 1ZQ      -0.094000
      6 C06         -1.0910    -0.9120     0.0290 cp         1 1ZQ      -0.066000
      7 C07          0.1910    -1.6750    -0.1080 cp         1 1ZQ      -0.052000
      8 C08          0.4630    -2.8020     0.7100 ca         1 1ZQ      -0.069500
      9 C09          1.6690    -3.5140     0.5810 ca         1 1ZQ      -0.153000
     10 C10          2.6190    -3.1140    -0.3690 ca         1 1ZQ       0.176000
     11 F11          3.7770    -3.7980    -0.4920 f          1 1ZQ      -0.177000
     12 C12          2.3710    -2.0060    -1.1930 ca         1 1ZQ      -0.153000
     13 C13          1.1660    -1.2940    -1.0650 ca         1 1ZQ      -0.069500
     14 C14         -1.1540     0.5720    -0.0750 cq         1 1ZQ       0.421500
     15 C15          0.0190     1.5090     0.0950 cq         1 1ZQ      -0.159500
     16 C16          0.0590     2.7460    -0.5910 ca         1 1ZQ      -0.056000
     17 C17          1.1530     3.6150    -0.4340 ca         1 1ZQ      -0.159000
     18 C18          2.2120     3.2630     0.4120 ca         1 1ZQ       0.179000
     19 F19          3.2610     4.1000     0.5620 f          1 1ZQ      -0.178000
     20 C20          2.1820     2.0490     1.1080 ca         1 1ZQ      -0.159000
     21 C21          1.0910     1.1750     0.9550 ca         1 1ZQ      -0.056000
     22 N22         -2.3570     1.1810    -0.1800 nb         1 1ZQ      -0.736000
     23 H1          -5.4190    -0.9950     0.1320 ho         1 1ZQ       0.487000
     24 H2          -2.2750    -2.7450     0.2050 ha         1 1ZQ       0.141000
     25 H4          -0.2590    -3.1170     1.4600 ha         1 1ZQ       0.123000
     26 H5           1.8680    -4.3730     1.2170 ha         1 1ZQ       0.134500
     27 H6           3.1110    -1.7030    -1.9290 ha         1 1ZQ       0.134500
     28 H7           0.9830    -0.4420    -1.7160 ha         1 1ZQ       0.123000
     29 H8          -0.7500     3.0380    -1.2590 ha         1 1ZQ       0.125500
     30 H9           1.1800     4.5610    -0.9690 ha         1 1ZQ       0.133500
     31 H10          3.0030     1.7850     1.7700 ha         1 1ZQ       0.133500
     32 H11          1.0850     0.2470     1.5220 ha         1 1ZQ       0.125500
     33 H12         -4.2510     2.0790    -0.2730 ho         1 1ZQ       0.495000
@<TRIPOS>BOND
     1     1     2 1   
     2     1    33 1   
     3     2     3 ar  
     4     2    22 ar  
     5     3     4 1   
     6     3     5 ar  
     7     4    23 1   
     8     5     6 ar  
     9     5    24 1   
    10     6     7 1   
    11     6    14 2   
    12     7     8 ar  
    13     7    13 ar  
    14     8     9 ar  
    15     8    25 1   
    16     9    10 ar  
    17     9    26 1   
    18    10    11 1   
    19    10    12 ar  
    20    12    13 ar  
    21    12    27 1   
    22    13    28 1   
    23    14    15 1   
    24    14    22 1   
    25    15    16 1   
    26    15    21 2   
    27    16    17 ar  
    28    16    29 1   
    29    17    18 ar  
    30    17    30 1   
    31    18    19 1   
    32    18    20 ar  
    33    20    21 ar  
    34    20    31 1   
    35    21    32 1   
@<TRIPOS>SUBSTRUCTURE
     1 1ZQ         1 TEMP              0 ****  ****    0 ROOT
