@<TRIPOS>MOLECULE
1ZQ
   33    35     1     0     0
SMALL
bcc


@<TRIPOS>ATOM
      1 O01         -4.6190     1.1180     0.0210 oh         1 1ZQ      -0.630300
      2 C02         -3.4410     0.4800     0.0270 ca         1 1ZQ       0.579600
      3 C03         -3.4770    -0.9250    -0.0110 ca         1 1ZQ       0.019800
      4 O04         -4.6230    -1.6260    -0.0410 oh         1 1ZQ      -0.485100
      5 C05         -2.2630    -1.5730    -0.0380 ca         1 1ZQ      -0.112000
      6 C06         -1.0630    -0.8530    -0.0110 cp         1 1ZQ      -0.131300
      7 C07          0.2140    -1.5890    -0.1190 cp         1 1ZQ      -0.052000
      8 C08          0.4940    -2.6500     0.7410 ca         1 1ZQ      -0.087500
      9 C09          1.6780    -3.3670     0.6370 ca         1 1ZQ      -0.171000
     10 C10          2.5790    -3.0110    -0.3460 ca         1 1ZQ       0.140900
     11 F11          3.7270    -3.6990    -0.4580 f          1 1ZQ      -0.141900
     12 C12          2.3350    -1.9710    -1.2230 ca         1 1ZQ      -0.171000
     13 C13          1.1480    -1.2660    -1.1030 ca         1 1ZQ      -0.087500
     14 C14         -1.1460     0.5360     0.0720 cq         1 1ZQ       0.486800
     15 C15          0.0350     1.4220     0.1700 cq         1 1ZQ      -0.159500
     16 C16          0.0920     2.5860    -0.5940 ca         1 1ZQ      -0.074000
     17 C17          1.1790     3.4440    -0.5150 ca         1 1ZQ      -0.177000
     18 C18          2.2060     3.1290     0.3540 ca         1 1ZQ       0.143900
     19 F19          3.2620     3.9530     0.4390 f          1 1ZQ      -0.142900
     20 C20          2.1760     1.9960     1.1440 ca         1 1ZQ      -0.177000
     21 C21          1.0850     1.1460     1.0440 ca         1 1ZQ      -0.074000
     22 N22         -2.3290     1.1610     0.0730 nb         1 1ZQ      -0.736000
     23 H1          -5.3880    -1.0380    -0.0360 ho         1 1ZQ       0.448000
     24 H2          -2.2440    -2.6540    -0.1090 ha         1 1ZQ       0.159000
     25 H4          -0.2130    -2.9170     1.5160 ha         1 1ZQ       0.141000
     26 H5           1.8910    -4.1840     1.3130 ha         1 1ZQ       0.152500
     27 H6           3.0550    -1.7190    -1.9910 ha         1 1ZQ       0.152500
     28 H7           0.9500    -0.4570    -1.7930 ha         1 1ZQ       0.141000
     29 H8          -0.7180     2.8240    -1.2710 ha         1 1ZQ       0.143500
     30 H9           1.2240     4.3400    -1.1200 ha         1 1ZQ       0.151500
     31 H10          2.9850     1.7830     1.8310 ha         1 1ZQ       0.151500
     32 H11          1.0520     0.2660     1.6720 ha         1 1ZQ       0.143500
     33 H12         -4.4690     2.0720     0.0510 ho         1 1ZQ       0.456000
@<TRIPOS>BOND
     1     1     2 1   
     2     1    33 1   
     3     2     3 ar  
     4     2    22 ar  
     5     3     4 1   
     6     3     5 ar  
     7     4    23 1   
     8     5     6 ar  
     9     5    24 1   
    10     6     7 1   
    11     6    14 2   
    12     7     8 ar  
    13     7    13 ar  
    14     8     9 ar  
    15     8    25 1   
    16     9    10 ar  
    17     9    26 1   
    18    10    11 1   
    19    10    12 ar  
    20    12    13 ar  
    21    12    27 1   
    22    13    28 1   
    23    14    15 1   
    24    14    22 1   
    25    15    16 1   
    26    15    21 2   
    27    16    17 ar  
    28    16    29 1   
    29    17    18 ar  
    30    17    30 1   
    31    18    19 1   
    32    18    20 ar  
    33    20    21 ar  
    34    20    31 1   
    35    21    32 1   
@<TRIPOS>SUBSTRUCTURE
     1 1ZQ         1 TEMP              0 ****  ****    0 ROOT
