@<TRIPOS>MOLECULE
1ZT
   18    17     1     0     0
SMALL
No Charge or Current Charge


@<TRIPOS>ATOM
      1 C            1.5570    -1.2180     0.4290 c          1 1ZT       0.594100
      2 O            1.9060    -0.7350     1.4980 o          1 1ZT      -0.641100
      3 CH3          2.3780    -2.2810    -0.2950 c3         1 1ZT      -0.176100
      4 N            0.3890    -0.8630    -0.2100 ns         1 1ZT      -0.463900
      5 CA          -0.5660     0.1810     0.2490 c3         1 1ZT      -0.041300
      6 C1          -2.0250    -0.3500     0.2010 c          1 1ZT       0.716000
      7 O1          -2.4440    -0.8070    -0.8550 o          1 1ZT      -0.718000
      8 CB          -0.4490     1.4900    -0.5640 c3         1 1ZT       0.110600
      9 SG           1.2550     2.2340    -0.6050 sh         1 1ZT      -0.483800
     10 OXT         -2.6730    -0.3540     1.2380 o          1 1ZT      -0.718000
     11 H1           1.7470    -3.1580    -0.4800 hc         1 1ZT       0.043367
     12 H2           2.5950    -1.9340    -1.3120 hc         1 1ZT       0.043367
     13 H3           3.2940    -2.5500     0.2430 hc         1 1ZT       0.043367
     14 H            0.1840    -1.3500    -1.0760 hn         1 1ZT       0.328500
     15 HA          -0.3500     0.4160     1.2990 h1         1 1ZT       0.075700
     16 HB2         -0.7570     1.3000    -1.6000 h1         1 1ZT       0.060200
     17 HB3         -1.1380     2.2350    -0.1440 h1         1 1ZT       0.060200
     18 HG           0.9310     3.2970    -1.3790 hs         1 1ZT       0.165800
@<TRIPOS>BOND
     1     1     2 2   
     2     1     3 1   
     3     1     4 1   
     4     3    11 1   
     5     3    12 1   
     6     3    13 1   
     7     4     5 1   
     8     4    14 1   
     9     5     6 1   
    10     5     8 1   
    11     5    15 1   
    12     6     7 1   
    13     6    10 1   
    14     8     9 1   
    15     8    16 1   
    16     8    17 1   
    17     9    18 1   
@<TRIPOS>SUBSTRUCTURE
     1 1ZT         1 TEMP              0 ****  ****    0 ROOT
