@<TRIPOS>MOLECULE
1ZT
   18    17     1     0     0
SMALL
abcg2


@<TRIPOS>ATOM
      1 C            1.5440    -1.1530     0.2780 c          1 1ZT       0.594100
      2 O            1.9910    -0.5720     1.2610 o          1 1ZT      -0.641100
      3 CH3          2.2880    -2.2990    -0.3640 c3         1 1ZT      -0.176100
      4 N            0.3780    -0.8340    -0.3000 ns         1 1ZT      -0.463900
      5 CA          -0.5590     0.1320     0.2150 c3         1 1ZT      -0.041300
      6 C1          -2.0180    -0.3580    -0.0200 c          1 1ZT       0.716000
      7 O1          -2.1670    -1.3870    -0.7040 o          1 1ZT      -0.718000
      8 CB          -0.4060     1.5020    -0.4430 c3         1 1ZT       0.110600
      9 SG           1.2620     2.1940    -0.1600 sh         1 1ZT      -0.483800
     10 OXT         -2.9030     0.3490     0.4920 o          1 1ZT      -0.718000
     11 H1           2.3520    -3.1290     0.3400 hc         1 1ZT       0.043367
     12 H2           1.8250    -2.6590    -1.2800 hc         1 1ZT       0.043367
     13 H3           3.3080    -1.9880    -0.5910 hc         1 1ZT       0.043367
     14 H            0.0080    -1.4310    -1.0240 hn         1 1ZT       0.328500
     15 HA          -0.4010     0.2390     1.2910 h1         1 1ZT       0.075700
     16 HB2         -0.5770     1.4210    -1.5170 h1         1 1ZT       0.060200
     17 HB3         -1.1450     2.1820    -0.0250 h1         1 1ZT       0.060200
     18 HG           1.0540     3.3440    -0.8130 hs         1 1ZT       0.165800
@<TRIPOS>BOND
     1     1     2 2   
     2     1     3 1   
     3     1     4 1   
     4     3    11 1   
     5     3    12 1   
     6     3    13 1   
     7     4     5 1   
     8     4    14 1   
     9     5     6 1   
    10     5     8 1   
    11     5    15 1   
    12     6     7 1   
    13     6    10 1   
    14     8     9 1   
    15     8    16 1   
    16     8    17 1   
    17     9    18 1   
@<TRIPOS>SUBSTRUCTURE
     1 1ZT         1 TEMP              0 ****  ****    0 ROOT
