@<TRIPOS>MOLECULE
1ZV
   92    94     1     0     0
SMALL
bcc


@<TRIPOS>ATOM
      1 N           17.6810   -17.0350    22.4850 n7         1 1ZV      -0.845200
      2 CA          18.1270   -16.1220    23.5290 c3         1 1ZV       0.106500
      3 C           17.6910   -14.7250    23.0910 c          1 1ZV       0.703100
      4 O           16.6770   -14.1990    23.5350 o          1 1ZV      -0.652100
      5 CB          17.6450   -16.4580    24.9370 c3         1 1ZV      -0.094400
      6 CG          18.2770   -15.5790    26.0250 c3         1 1ZV      -0.029100
      7 C1          19.7800   -15.5700    25.9510 ca         1 1ZV      -0.090300
      8 C2          20.5150   -16.7010    26.3080 ca         1 1ZV      -0.132500
      9 C6          20.4680   -14.4590    25.4700 ca         1 1ZV      -0.132500
     10 C3          21.8970   -16.7220    26.1830 ca         1 1ZV      -0.125500
     11 C5          21.8520   -14.4750    25.3420 ca         1 1ZV      -0.125500
     12 C4          22.5710   -15.6080    25.6970 ca         1 1ZV      -0.123000
     13 N1          18.4480   -14.1040    22.1680 n          1 1ZV      -0.447800
     14 CA1         18.0110   -12.8440    21.6060 c5         1 1ZV       0.029700
     15 C7          16.7030   -13.0030    20.8450 c          1 1ZV       0.659100
     16 O1          16.3080   -14.0840    20.4500 o          1 1ZV      -0.569100
     17 CB1         19.1370   -12.4520    20.6240 c5         1 1ZV      -0.086400
     18 CG1         20.3230   -13.3030    21.0630 c5         1 1ZV      -0.095400
     19 CD          19.6650   -14.5900    21.5330 c5         1 1ZV       0.109000
     20 N2          16.0780   -11.8370    20.5750 ns         1 1ZV      -0.591900
     21 CA2         14.8770   -11.7290    19.7710 c3         1 1ZV       0.002700
     22 C8          15.2550   -11.0450    18.4590 c          1 1ZV       0.470100
     23 O2          14.8560    -9.9450    18.1650 o          1 1ZV      -0.483100
     24 CB2         13.7490   -11.0380    20.5210 c3         1 1ZV      -0.077400
     25 CG2         13.2870   -11.8660    21.7120 c3         1 1ZV      -0.099400
     26 CD1         12.1050   -11.2250    22.4180 c3         1 1ZV       0.032300
     27 NE          11.6840   -12.0670    23.5250 nu         1 1ZV      -0.403100
     28 CZ          10.7070   -11.7750    24.3720 cz         1 1ZV       0.529300
     29 NH1         10.0110   -10.6540    24.2360 nv         1 1ZV      -0.512200
     30 NH2         10.4210   -12.6120    25.3630 nv         1 1ZV      -0.512200
     31 C9          16.1480   -11.8590    17.5080 c3         1 1ZV       0.333300
     32 O3          16.9890   -11.0250    16.7640 oh         1 1ZV      -0.560800
     33 N3          15.3350   -12.5940    16.5790 n7         1 1ZV      -0.851200
     34 C11         14.8780   -13.9250    16.9500 c3         1 1ZV       0.198800
     35 C21         16.0090   -14.9470    17.0200 c3         1 1ZV      -0.078400
     36 C31         15.6240   -16.1800    17.8330 c3         1 1ZV      -0.074400
     37 C41         16.8220   -17.0410    18.2330 c3         1 1ZV      -0.066400
     38 C51         16.5720   -17.8450    19.5020 c3         1 1ZV      -0.075400
     39 C61         17.7840   -18.6620    19.9420 c3         1 1ZV      -0.062400
     40 C71         17.6850   -19.2120    21.3710 c3         1 1ZV      -0.067400
     41 C81         18.3190   -18.3400    22.4520 c3         1 1ZV       0.392300
     42 O8          19.6900   -18.1990    22.1710 oh         1 1ZV      -0.587800
     43 H           16.6750   -17.1490    22.5320 hn         1 1ZV       0.379800
     44 HA          19.2170   -16.1560    23.5340 h1         1 1ZV       0.077700
     45 HB2         16.5570   -16.3830    24.9930 hc         1 1ZV       0.047200
     46 HB3         17.8970   -17.5020    25.1410 hc         1 1ZV       0.047200
     47 HG2         17.9020   -14.5590    25.9420 hc         1 1ZV       0.054200
     48 HG3         17.9550   -15.9520    27.0000 hc         1 1ZV       0.054200
     49 HC2         19.9980   -17.5760    26.6860 ha         1 1ZV       0.128000
     50 H6          19.9150   -13.5700    25.1890 ha         1 1ZV       0.128000
     51 H3          22.4500   -17.6080    26.4680 ha         1 1ZV       0.135000
     52 H5          22.3670   -13.6010    24.9640 ha         1 1ZV       0.135000
     53 H4          23.6490   -15.6230    25.5980 ha         1 1ZV       0.138000
     54 HA1         17.8970   -12.0900    22.3910 h1         1 1ZV       0.072700
     55 HB21        18.8580   -12.7100    19.5990 hc         1 1ZV       0.057200
     56 HB31        19.3350   -11.3820    20.6480 hc         1 1ZV       0.057200
     57 HG21        21.0420   -13.4700    20.2630 hc         1 1ZV       0.062700
     58 HG31        20.8490   -12.8320    21.8960 hc         1 1ZV       0.062700
     59 HD2         20.2920   -15.1430    22.2290 h1         1 1ZV       0.070700
     60 HD3         19.4320   -15.2490    20.6920 h1         1 1ZV       0.070700
     61 H1          16.4540   -10.9830    20.9600 hn         1 1ZV       0.317500
     62 HA2         14.5690   -12.7520    19.5360 h1         1 1ZV       0.101700
     63 HB22        14.0650   -10.0440    20.8490 hc         1 1ZV       0.062700
     64 HB32        12.9130   -10.8910    19.8330 hc         1 1ZV       0.062700
     65 HG22        13.0020   -12.8650    21.3700 hc         1 1ZV       0.071700
     66 HG32        14.1060   -11.9940    22.4260 hc         1 1ZV       0.071700
     67 HD21        12.3870   -10.2360    22.7910 h1         1 1ZV       0.065200
     68 HD31        11.2810   -11.0930    21.7100 h1         1 1ZV       0.065200
     69 HE          12.1520   -12.9530    23.6420 hn         1 1ZV       0.328700
     70 HH11         9.2710   -10.4250    24.8790 hn         1 1ZV       0.328450
     71 HH12        10.1370   -10.0380    23.4510 hn         1 1ZV       0.328450
     72 HH21         9.7040   -12.3980    26.0360 hn         1 1ZV       0.328450
     73 HH22        11.0000   -13.4140    25.5500 hn         1 1ZV       0.328450
     74 H11         16.7250   -12.5850    18.0920 h2         1 1ZV       0.062700
     75 HO          17.5510   -10.5250    17.3660 ho         1 1ZV       0.413000
     76 HN          14.5760   -12.0330    16.2140 hn         1 1ZV       0.392800
     77 H111        14.3270   -13.9420    17.9010 h1         1 1ZV       0.026700
     78 H12         14.1530   -14.2300    16.1930 h1         1 1ZV       0.026700
     79 H21         16.3280   -15.2210    16.0110 hc         1 1ZV       0.051200
     80 H22         16.8820   -14.4960    17.4990 hc         1 1ZV       0.051200
     81 H31         15.1250   -15.8390    18.7440 hc         1 1ZV       0.036700
     82 H32         14.8860   -16.7820    17.2940 hc         1 1ZV       0.036700
     83 H41         17.1140   -17.7010    17.4110 hc         1 1ZV       0.040200
     84 H42         17.6830   -16.3870    18.4170 hc         1 1ZV       0.040200
     85 H51         16.3020   -17.1460    20.2950 hc         1 1ZV       0.037700
     86 H52         15.7100   -18.5090    19.3710 hc         1 1ZV       0.037700
     87 H61         17.9180   -19.4930    19.2450 hc         1 1ZV       0.049700
     88 H62         18.6850   -18.0500    19.8450 hc         1 1ZV       0.049700
     89 H71         16.6370   -19.3890    21.6340 hc         1 1ZV       0.046200
     90 H72         18.1720   -20.1880    21.4330 hc         1 1ZV       0.046200
     91 H81         18.2100   -18.8740    23.4110 h2         1 1ZV       0.000700
     92 HO8         20.1800   -18.1580    22.9970 ho         1 1ZV       0.405000
@<TRIPOS>BOND
     1     1     2 1   
     2     1    41 1   
     3     1    43 1   
     4     2     3 1   
     5     2     5 1   
     6     2    44 1   
     7     3     4 2   
     8     3    13 1   
     9     5     6 1   
    10     5    45 1   
    11     5    46 1   
    12     6     7 1   
    13     6    47 1   
    14     6    48 1   
    15     7     8 ar  
    16     7     9 ar  
    17     8    10 ar  
    18     8    49 1   
    19     9    11 ar  
    20     9    50 1   
    21    10    12 ar  
    22    10    51 1   
    23    11    12 ar  
    24    11    52 1   
    25    12    53 1   
    26    13    14 1   
    27    13    19 1   
    28    14    15 1   
    29    14    17 1   
    30    14    54 1   
    31    15    16 2   
    32    15    20 1   
    33    17    18 1   
    34    17    55 1   
    35    17    56 1   
    36    18    19 1   
    37    18    57 1   
    38    18    58 1   
    39    19    59 1   
    40    19    60 1   
    41    20    21 1   
    42    20    61 1   
    43    21    22 1   
    44    21    24 1   
    45    21    62 1   
    46    22    23 2   
    47    22    31 1   
    48    24    25 1   
    49    24    63 1   
    50    24    64 1   
    51    25    26 1   
    52    25    65 1   
    53    25    66 1   
    54    26    27 1   
    55    26    67 1   
    56    26    68 1   
    57    27    28 2   
    58    27    69 1   
    59    28    29 1   
    60    28    30 1   
    61    29    70 1   
    62    29    71 1   
    63    30    72 1   
    64    30    73 1   
    65    31    32 1   
    66    31    33 1   
    67    31    74 1   
    68    32    75 1   
    69    33    34 1   
    70    33    76 1   
    71    34    35 1   
    72    34    77 1   
    73    34    78 1   
    74    35    36 1   
    75    35    79 1   
    76    35    80 1   
    77    36    37 1   
    78    36    81 1   
    79    36    82 1   
    80    37    38 1   
    81    37    83 1   
    82    37    84 1   
    83    38    39 1   
    84    38    85 1   
    85    38    86 1   
    86    39    40 1   
    87    39    87 1   
    88    39    88 1   
    89    40    41 1   
    90    40    89 1   
    91    40    90 1   
    92    41    42 1   
    93    41    91 1   
    94    42    92 1   
@<TRIPOS>SUBSTRUCTURE
     1 1ZV         1 TEMP              0 ****  ****    0 ROOT
