@<TRIPOS>MOLECULE
1ZV
   92    94     1     0     0
SMALL
No Charge or Current Charge


@<TRIPOS>ATOM
      1 N           17.7410   -17.2980    22.3950 n7         1 1ZV      -0.900400
      2 CA          18.0800   -16.3250    23.4990 c3         1 1ZV       0.106500
      3 C           17.6490   -14.8540    23.1040 c          1 1ZV       0.636100
      4 O           16.6780   -14.2910    23.6060 o          1 1ZV      -0.652100
      5 CB          17.4740   -16.8060    24.8520 c3         1 1ZV      -0.094400
      6 CG          17.8460   -15.9250    26.0740 c3         1 1ZV      -0.029100
      7 C1          19.3360   -15.6090    26.1440 ca         1 1ZV      -0.090300
      8 C2          20.2580   -16.6110    26.5020 ca         1 1ZV      -0.114500
      9 C6          19.8060   -14.3210    25.8160 ca         1 1ZV      -0.114500
     10 C3          21.6350   -16.3290    26.5330 ca         1 1ZV      -0.107500
     11 C5          21.1820   -14.0400    25.8460 ca         1 1ZV      -0.107500
     12 C4          22.0980   -15.0440    26.2040 ca         1 1ZV      -0.105000
     13 N1          18.3800   -14.2100    22.0780 n          1 1ZV      -0.380800
     14 CA1         17.8840   -12.9970    21.3650 c5         1 1ZV       0.029700
     15 C7          16.4750   -13.1550    20.7070 c          1 1ZV       0.592100
     16 O1          15.7990   -14.1700    20.6320 o          1 1ZV      -0.569100
     17 CB1         18.9480   -12.8490    20.2320 c5         1 1ZV      -0.086400
     18 CG1         20.2320   -13.3690    20.9190 c5         1 1ZV      -0.095400
     19 CD          19.7170   -14.6470    21.6250 c5         1 1ZV       0.109000
     20 N2          16.0640   -11.9430    20.1770 ns         1 1ZV      -0.524900
     21 CA2         14.7570   -11.7340    19.5080 c3         1 1ZV       0.002700
     22 C8          14.9340   -11.0030    18.1400 c          1 1ZV       0.470100
     23 O2          14.2840    -9.9960    17.8630 o          1 1ZV      -0.483100
     24 CB2         13.7490   -11.0330    20.4610 c3         1 1ZV      -0.077400
     25 CG2         13.4800   -11.8030    21.7770 c3         1 1ZV      -0.099400
     26 CD1         12.4160   -11.1240    22.6580 c3         1 1ZV       0.061600
     27 NE          12.2200   -11.9010    23.8950 nu         1 1ZV      -0.888000
     28 CZ          11.3930   -11.6740    24.8930 cz         1 1ZV       0.934600
     29 NH1         10.6000   -10.6430    24.8750 nv         1 1ZV      -0.612800
     30 NH2         11.3770   -12.4920    25.9010 nv         1 1ZV      -0.612800
     31 C9          16.0090   -11.6070    17.1360 c3         1 1ZV       0.356500
     32 O3          16.5790   -10.5960    16.3070 oh         1 1ZV      -0.623000
     33 N3          15.4850   -12.5790    16.1550 n7         1 1ZV      -0.906400
     34 C11         15.0460   -13.9030    16.6510 c3         1 1ZV       0.198800
     35 C21         16.2480   -14.7550    17.1240 c3         1 1ZV      -0.078400
     36 C31         15.8370   -16.0810    17.8010 c3         1 1ZV      -0.074400
     37 C41         17.0510   -16.8880    18.3180 c3         1 1ZV      -0.066400
     38 C51         16.6740   -17.9640    19.3610 c3         1 1ZV      -0.075400
     39 C61         17.8850   -18.8170    19.8230 c3         1 1ZV      -0.062400
     40 C71         17.7130   -19.4830    21.2230 c3         1 1ZV      -0.067400
     41 C81         18.2210   -18.6610    22.4410 c3         1 1ZV       0.415500
     42 O8          19.5980   -18.5010    22.3620 oh         1 1ZV      -0.650000
     43 H           16.7200   -17.3410    22.3110 hn         1 1ZV       0.435000
     44 HA          19.1670   -16.2900    23.6370 h1         1 1ZV       0.077700
     45 HB2         16.3820   -16.8650    24.7700 hc         1 1ZV       0.047200
     46 HB3         17.8280   -17.8210    25.0640 hc         1 1ZV       0.047200
     47 HG2         17.2600   -14.9990    26.0540 hc         1 1ZV       0.054200
     48 HG3         17.5340   -16.4450    26.9890 hc         1 1ZV       0.054200
     49 HC2         19.9090   -17.6110    26.7500 ha         1 1ZV       0.110000
     50 H6          19.1060   -13.5380    25.5320 ha         1 1ZV       0.110000
     51 H3          22.3430   -17.1070    26.8090 ha         1 1ZV       0.117000
     52 H5          21.5400   -13.0440    25.5890 ha         1 1ZV       0.117000
     53 H4          23.1640   -14.8260    26.2270 ha         1 1ZV       0.120000
     54 HA1         17.8760   -12.1290    22.0370 h1         1 1ZV       0.072700
     55 HB21        18.7010   -13.4700    19.3620 hc         1 1ZV       0.057200
     56 HB31        19.0470   -11.8170    19.8770 hc         1 1ZV       0.057200
     57 HG21        21.0410   -13.5790    20.2100 hc         1 1ZV       0.062700
     58 HG31        20.6140   -12.6430    21.6470 hc         1 1ZV       0.062700
     59 HD2         20.3760   -14.9350    22.4550 h1         1 1ZV       0.070700
     60 HD3         19.6340   -15.4910    20.9270 h1         1 1ZV       0.070700
     61 H1          16.6760   -11.1460    20.3240 hn         1 1ZV       0.317500
     62 HA2         14.3360   -12.7160    19.2620 h1         1 1ZV       0.101700
     63 HB22        14.1170   -10.0270    20.7010 hc         1 1ZV       0.062700
     64 HB32        12.7960   -10.9030    19.9320 hc         1 1ZV       0.062700
     65 HG22        13.1540   -12.8230    21.5380 hc         1 1ZV       0.071700
     66 HG32        14.4110   -11.8870    22.3500 hc         1 1ZV       0.071700
     67 HD21        12.7450   -10.1020    22.8970 h1         1 1ZV       0.065200
     68 HD31        11.4730   -11.0560    22.0960 h1         1 1ZV       0.065200
     69 HE          12.8130   -12.7170    23.9990 hn         1 1ZV       0.379000
     70 HH11         9.9590   -10.4440    25.6250 hn         1 1ZV       0.378750
     71 HH12        10.6080   -10.0030    24.1000 hn         1 1ZV       0.378750
     72 HH21        10.7600   -12.3590    26.6850 hn         1 1ZV       0.378750
     73 HH22        11.9760   -13.3000    25.9330 hn         1 1ZV       0.378750
     74 H11         16.8220   -12.0500    17.7240 h2         1 1ZV       0.062700
     75 HO          16.8920    -9.8840    16.9030 ho         1 1ZV       0.452000
     76 HN          14.7020   -12.1230    15.6720 hn         1 1ZV       0.448000
     77 H111        14.3170   -13.7970    17.4630 h1         1 1ZV       0.026700
     78 H12         14.5430   -14.4500    15.8410 h1         1 1ZV       0.026700
     79 H21         16.8980   -14.9680    16.2660 hc         1 1ZV       0.051200
     80 H22         16.8450   -14.1820    17.8410 hc         1 1ZV       0.051200
     81 H31         15.1660   -15.8550    18.6390 hc         1 1ZV       0.036700
     82 H32         15.2640   -16.6960    17.0960 hc         1 1ZV       0.036700
     83 H41         17.5630   -17.3570    17.4680 hc         1 1ZV       0.040200
     84 H42         17.7690   -16.2010    18.7830 hc         1 1ZV       0.040200
     85 H51         16.2160   -17.4610    20.2190 hc         1 1ZV       0.037700
     86 H52         15.9060   -18.6280    18.9450 hc         1 1ZV       0.037700
     87 H61         18.0510   -19.6020    19.0750 hc         1 1ZV       0.049700
     88 H62         18.7940   -18.2040    19.8210 hc         1 1ZV       0.049700
     89 H71         16.6580   -19.7370    21.3770 hc         1 1ZV       0.046200
     90 H72         18.2510   -20.4390    21.2200 hc         1 1ZV       0.046200
     91 H81         17.9580   -19.1660    23.3770 h2         1 1ZV       0.000700
     92 HO8         19.6340   -17.5780    22.0510 ho         1 1ZV       0.444000
@<TRIPOS>BOND
     1     1     2 1   
     2     1    41 1   
     3     1    43 1   
     4     2     3 1   
     5     2     5 1   
     6     2    44 1   
     7     3     4 2   
     8     3    13 1   
     9     5     6 1   
    10     5    45 1   
    11     5    46 1   
    12     6     7 1   
    13     6    47 1   
    14     6    48 1   
    15     7     8 ar  
    16     7     9 ar  
    17     8    10 ar  
    18     8    49 1   
    19     9    11 ar  
    20     9    50 1   
    21    10    12 ar  
    22    10    51 1   
    23    11    12 ar  
    24    11    52 1   
    25    12    53 1   
    26    13    14 1   
    27    13    19 1   
    28    14    15 1   
    29    14    17 1   
    30    14    54 1   
    31    15    16 2   
    32    15    20 1   
    33    17    18 1   
    34    17    55 1   
    35    17    56 1   
    36    18    19 1   
    37    18    57 1   
    38    18    58 1   
    39    19    59 1   
    40    19    60 1   
    41    20    21 1   
    42    20    61 1   
    43    21    22 1   
    44    21    24 1   
    45    21    62 1   
    46    22    23 2   
    47    22    31 1   
    48    24    25 1   
    49    24    63 1   
    50    24    64 1   
    51    25    26 1   
    52    25    65 1   
    53    25    66 1   
    54    26    27 1   
    55    26    67 1   
    56    26    68 1   
    57    27    28 2   
    58    27    69 1   
    59    28    29 1   
    60    28    30 1   
    61    29    70 1   
    62    29    71 1   
    63    30    72 1   
    64    30    73 1   
    65    31    32 1   
    66    31    33 1   
    67    31    74 1   
    68    32    75 1   
    69    33    34 1   
    70    33    76 1   
    71    34    35 1   
    72    34    77 1   
    73    34    78 1   
    74    35    36 1   
    75    35    79 1   
    76    35    80 1   
    77    36    37 1   
    78    36    81 1   
    79    36    82 1   
    80    37    38 1   
    81    37    83 1   
    82    37    84 1   
    83    38    39 1   
    84    38    85 1   
    85    38    86 1   
    86    39    40 1   
    87    39    87 1   
    88    39    88 1   
    89    40    41 1   
    90    40    89 1   
    91    40    90 1   
    92    41    42 1   
    93    41    91 1   
    94    42    92 1   
@<TRIPOS>SUBSTRUCTURE
     1 1ZV         1 TEMP              0 ****  ****    0 ROOT
