@<TRIPOS>MOLECULE
1ZW
   20    20     1     0     0
SMALL
No Charge or Current Charge


@<TRIPOS>ATOM
      1 CAK          3.4980     0.0030     0.9660 cs         1 1ZW       0.359200
      2 SAC          4.6110    -0.0010    -0.2890 s          1 1ZW      -0.559400
      3 NAJ          2.1410    -0.0070     0.7770 ns         1 1ZW      -0.397900
      4 CAI          1.4530    -0.0220    -0.5120 c3         1 1ZW       0.125300
      5 CAM         -0.0570    -0.0300    -0.3300 ca         1 1ZW      -0.102300
      6 CAG         -0.7690     1.1830    -0.2530 ca         1 1ZW      -0.097000
      7 CAE         -2.1640     1.1770    -0.0810 ca         1 1ZW      -0.074000
      8 CAL         -2.8600    -0.0440     0.0170 ca         1 1ZW      -0.003000
      9 CAD         -4.2870    -0.0510     0.1930 cg         1 1ZW       0.316000
     10 NAB         -5.4450    -0.0570     0.3460 n1         1 1ZW      -0.437000
     11 CAF         -2.1490    -1.2570    -0.0580 ca         1 1ZW      -0.074000
     12 CAH         -0.7540    -1.2490    -0.2310 ca         1 1ZW      -0.097000
     13 H1           3.7780     0.0140     2.0210 h5         1 1ZW       0.044200
     14 H3           1.7550     0.8620    -1.0890 h1         1 1ZW       0.082200
     15 H4           1.7660    -0.9130    -1.0740 h1         1 1ZW       0.082200
     16 H5          -0.2410     2.1320    -0.3240 ha         1 1ZW       0.126000
     17 H6          -2.7030     2.1210    -0.0220 ha         1 1ZW       0.131500
     18 H7          -2.6760    -2.2070     0.0170 ha         1 1ZW       0.131500
     19 H8          -0.2150    -2.1930    -0.2850 ha         1 1ZW       0.126000
     20 H2           1.5640    -0.0030     1.6120 hn         1 1ZW       0.318500
@<TRIPOS>BOND
     1     1     2 2   
     2     1     3 1   
     3     1    13 1   
     4     3     4 1   
     5     3    20 1   
     6     4     5 1   
     7     4    14 1   
     8     4    15 1   
     9     5     6 ar  
    10     5    12 ar  
    11     6     7 ar  
    12     6    16 1   
    13     7     8 ar  
    14     7    17 1   
    15     8     9 1   
    16     8    11 ar  
    17     9    10 3   
    18    11    12 ar  
    19    11    18 1   
    20    12    19 1   
@<TRIPOS>SUBSTRUCTURE
     1 1ZW         1 TEMP              0 ****  ****    0 ROOT
