@<TRIPOS>MOLECULE
1ZW
   20    20     1     0     0
SMALL
abcg2


@<TRIPOS>ATOM
      1 CAK          3.3580     0.1500     0.9640 cs         1 1ZW       0.359200
      2 SAC          4.4670     0.5380    -0.1980 s          1 1ZW      -0.559400
      3 NAJ          2.0860    -0.1280     0.7670 ns         1 1ZW      -0.397900
      4 CAI          1.4430    -0.1300    -0.5350 c3         1 1ZW       0.125300
      5 CAM         -0.0490    -0.0900    -0.3660 ca         1 1ZW      -0.102300
      6 CAG         -0.7130     1.1320    -0.2960 ca         1 1ZW      -0.097000
      7 CAE         -2.0810     1.1790    -0.0940 ca         1 1ZW      -0.074000
      8 CAL         -2.7950    -0.0120     0.0330 ca         1 1ZW      -0.003000
      9 CAD         -4.2070     0.0310     0.2390 cg         1 1ZW       0.316000
     10 NAB         -5.3480     0.0670     0.3970 n1         1 1ZW      -0.437000
     11 CAF         -2.1420    -1.2410    -0.0380 ca         1 1ZW      -0.074000
     12 CAH         -0.7730    -1.2710    -0.2350 ca         1 1ZW      -0.097000
     13 H1           3.6390     0.1010     2.0140 h5         1 1ZW       0.044200
     14 H3           1.7980     0.7370    -1.0930 h1         1 1ZW       0.082200
     15 H4           1.7480    -1.0180    -1.0950 h1         1 1ZW       0.082200
     16 H5          -0.1570     2.0550    -0.3980 ha         1 1ZW       0.126000
     17 H6          -2.5930     2.1270    -0.0090 ha         1 1ZW       0.131500
     18 H7          -2.7010    -2.1620     0.0630 ha         1 1ZW       0.131500
     19 H8          -0.2640    -2.2250    -0.2920 ha         1 1ZW       0.126000
     20 H2           1.5300    -0.3830     1.5710 hn         1 1ZW       0.318500
@<TRIPOS>BOND
     1     1     2 2   
     2     1     3 1   
     3     1    13 1   
     4     3     4 1   
     5     3    20 1   
     6     4     5 1   
     7     4    14 1   
     8     4    15 1   
     9     5     6 ar  
    10     5    12 ar  
    11     6     7 ar  
    12     6    16 1   
    13     7     8 ar  
    14     7    17 1   
    15     8     9 1   
    16     8    11 ar  
    17     9    10 3   
    18    11    12 ar  
    19    11    18 1   
    20    12    19 1   
@<TRIPOS>SUBSTRUCTURE
     1 1ZW         1 TEMP              0 ****  ****    0 ROOT
