@<TRIPOS>MOLECULE
1ZX
   63    64     1     0     0
SMALL
bcc


@<TRIPOS>ATOM
      1 N           30.9340    45.8120    26.3860 n8         1 1ZX      -0.918800
      2 CA          30.4680    46.7430    27.4100 c3         1 1ZX       0.081500
      3 C           29.1670    46.2060    28.0040 c          1 1ZX       0.668100
      4 O           29.1190    45.0730    28.4640 o          1 1ZX      -0.608100
      5 CB          31.5100    46.8570    28.5290 c3         1 1ZX      -0.022100
      6 CG          31.0840    47.8400    29.5840 ca         1 1ZX      -0.114300
      7 CD1         31.3520    49.1990    29.4300 ca         1 1ZX      -0.122500
      8 CD2         30.3650    47.4260    30.7030 ca         1 1ZX      -0.122500
      9 CE1         30.9050    50.1230    30.3640 ca         1 1ZX      -0.123500
     10 CE2         29.9150    48.3470    31.6400 ca         1 1ZX      -0.123500
     11 CZ          30.1810    49.7000    31.4710 ca         1 1ZX      -0.112000
     12 N1          28.0790    46.9980    27.9970 n          1 1ZX      -0.480800
     13 CA1         26.8420    46.5000    28.5860 c5         1 1ZX       0.018700
     14 C1          26.2990    45.2410    27.9280 c          1 1ZX       0.666100
     15 O1          25.6710    44.4200    28.5780 o          1 1ZX      -0.571100
     16 CB1         25.8730    47.6810    28.4430 c5         1 1ZX      -0.083400
     17 CG1         26.7970    48.8910    28.4850 c5         1 1ZX      -0.095400
     18 CD          28.0120    48.4310    27.6920 c5         1 1ZX       0.098000
     19 N2          26.4630    45.1400    26.5980 ns         1 1ZX      -0.569900
     20 CA2         26.1140    43.9380    25.8670 c3         1 1ZX       0.013700
     21 C2          24.6370    43.5960    26.0510 c          1 1ZX       0.585100
     22 O2          24.2700    42.4530    26.1800 o          1 1ZX      -0.495100
     23 CB2         27.0580    42.7700    26.1570 c3         1 1ZX      -0.087400
     24 CG2         28.5040    43.1240    25.8230 c3         1 1ZX      -0.086400
     25 CD3         29.5050    42.2480    26.5630 c3         1 1ZX       0.038300
     26 NE          30.8140    42.8790    26.5540 nu         1 1ZX      -0.402100
     27 CZ1         31.9530    42.2640    26.8240 cz         1 1ZX       0.519300
     28 NH1         32.0120    40.9500    27.0150 nv         1 1ZX      -0.518200
     29 NH2         33.0760    42.9800    26.8890 nv         1 1ZX      -0.518200
     30 C3          23.6680    44.7450    25.9700 c3         1 1ZX      -0.192100
     31 H           30.3460    45.8930    25.5630 hn         1 1ZX       0.355300
     32 H2          31.8570    46.1010    26.0790 hn         1 1ZX       0.355300
     33 HA          30.3170    47.7400    26.9860 h1         1 1ZX       0.055700
     34 HB2         31.6780    45.8680    28.9600 hc         1 1ZX       0.055700
     35 HB3         32.4550    47.1770    28.0810 hc         1 1ZX       0.055700
     36 HD1         31.9160    49.5360    28.5680 ha         1 1ZX       0.133500
     37 HD2         30.1540    46.3720    30.8460 ha         1 1ZX       0.133500
     38 HE1         31.1250    51.1750    30.2290 ha         1 1ZX       0.142500
     39 HE2         29.3590    48.0080    32.5040 ha         1 1ZX       0.142500
     40 HZ          29.8320    50.4190    32.2020 ha         1 1ZX       0.144000
     41 HA1         26.9950    46.2630    29.6430 h1         1 1ZX       0.101700
     42 HB21        25.3520    47.6380    27.4830 hc         1 1ZX       0.070200
     43 HB31        25.1220    47.6790    29.2300 hc         1 1ZX       0.070200
     44 HG2         26.3460    49.7870    28.0640 hc         1 1ZX       0.070200
     45 HG3         27.0880    49.1100    29.5150 hc         1 1ZX       0.070200
     46 HD21        28.9180    48.9480    28.0020 h1         1 1ZX       0.054700
     47 HD3         27.8720    48.5910    26.6200 h1         1 1ZX       0.054700
     48 H1          27.0030    45.8430    26.1190 hn         1 1ZX       0.315500
     49 HA2         26.2030    44.2060    24.8070 h1         1 1ZX       0.062700
     50 HB22        26.9710    42.4960    27.2100 hc         1 1ZX       0.078200
     51 HB32        26.7400    41.8990    25.5830 hc         1 1ZX       0.078200
     52 HG21        28.6740    43.0560    24.7460 hc         1 1ZX       0.050200
     53 HG31        28.6880    44.1580    26.1050 hc         1 1ZX       0.050200
     54 HD22        29.1740    42.0930    27.5940 h1         1 1ZX       0.066700
     55 HD31        29.5520    41.2670    26.0860 h1         1 1ZX       0.066700
     56 HE          30.8300    43.9130    26.5720 hn         1 1ZX       0.359700
     57 HH11        32.8970    40.4860    27.1300 hn         1 1ZX       0.320700
     58 HH12        31.2030    40.3620    26.9170 hn         1 1ZX       0.320700
     59 HH21        33.0390    43.9850    26.8630 hn         1 1ZX       0.320700
     60 HH22        33.9420    42.5610    27.1850 hn         1 1ZX       0.320700
     61 H11         23.5480    45.1970    26.9560 hc         1 1ZX       0.066700
     62 H21         24.0160    45.5270    25.2970 hc         1 1ZX       0.066700
     63 H38         22.6910    44.3900    25.6450 hc         1 1ZX       0.066700
@<TRIPOS>BOND
     1     1     2 1   
     2     1    31 1   
     3     1    32 1   
     4     2     3 1   
     5     2     5 1   
     6     2    33 1   
     7     3     4 2   
     8     3    12 1   
     9     5     6 1   
    10     5    34 1   
    11     5    35 1   
    12     6     7 ar  
    13     6     8 ar  
    14     7     9 ar  
    15     7    36 1   
    16     8    10 ar  
    17     8    37 1   
    18     9    11 ar  
    19     9    38 1   
    20    10    11 ar  
    21    10    39 1   
    22    11    40 1   
    23    12    13 1   
    24    12    18 1   
    25    13    14 1   
    26    13    16 1   
    27    13    41 1   
    28    14    15 2   
    29    14    19 1   
    30    16    17 1   
    31    16    42 1   
    32    16    43 1   
    33    17    18 1   
    34    17    44 1   
    35    17    45 1   
    36    18    46 1   
    37    18    47 1   
    38    19    20 1   
    39    19    48 1   
    40    20    21 1   
    41    20    23 1   
    42    20    49 1   
    43    21    22 2   
    44    21    30 1   
    45    23    24 1   
    46    23    50 1   
    47    23    51 1   
    48    24    25 1   
    49    24    52 1   
    50    24    53 1   
    51    25    26 1   
    52    25    54 1   
    53    25    55 1   
    54    26    27 2   
    55    26    56 1   
    56    27    28 1   
    57    27    29 1   
    58    28    57 1   
    59    28    58 1   
    60    29    59 1   
    61    29    60 1   
    62    30    61 1   
    63    30    62 1   
    64    30    63 1   
@<TRIPOS>SUBSTRUCTURE
     1 1ZX         1 TEMP              0 ****  ****    0 ROOT
