@<TRIPOS>MOLECULE
E00
   27    27     1     0     0
SMALL
abcg2


@<TRIPOS>ATOM
      1 C7           5.3430    19.5790    38.1040 ca         1 E00      -0.058000
      2 C8           6.3980    20.4780    38.1780 ca         1 E00      -0.098000
      3 C9           7.1220    20.7950    37.0380 ca         1 E00      -0.083500
      4 C1           7.1140    22.9780    34.5740 c3         1 E00       0.076567
      5 C5           5.7430    19.3090    35.7490 ca         1 E00      -0.083500
      6 C6           5.0190    18.9910    36.8880 ca         1 E00      -0.098000
      7 C4           6.7920    20.2260    35.8100 ca         1 E00      -0.175300
      8 C3           7.5890    20.5460    34.5830 c3         1 E00       0.166900
      9 C2           7.9630    21.8780    32.5870 c3         1 E00       0.076567
     10 N            7.0740    21.7230    33.7750 n4         1 E00      -0.502000
     11 C            5.6820    21.4830    33.3050 c3         1 E00       0.076567
     12 H1           4.7800    19.3280    38.9940 ha         1 E00       0.141000
     13 H2           6.6640    20.9270    39.1260 ha         1 E00       0.139000
     14 H3           7.9560    21.4840    37.1070 ha         1 E00       0.116000
     15 H4           6.4420    22.8960    35.4220 hx         1 E00       0.095922
     16 H5           8.1310    23.1520    34.9180 hx         1 E00       0.095922
     17 H6           6.7950    23.8020    33.9400 hx         1 E00       0.095922
     18 H7           5.4950    18.8360    34.8060 ha         1 E00       0.116000
     19 H8           4.2070    18.2780    36.8270 ha         1 E00       0.139000
     20 H9           7.6010    19.6990    33.8970 hx         1 E00       0.093700
     21 H10          8.6200    20.7910    34.8390 hx         1 E00       0.093700
     22 H11          8.9800    22.0590    32.9250 hx         1 E00       0.095922
     23 H12          7.9250    20.9690    31.9930 hx         1 E00       0.095922
     24 H13          7.6150    22.7210    31.9960 hx         1 E00       0.095922
     25 H14          5.0140    21.4080    34.1580 hx         1 E00       0.095922
     26 H15          5.3800    22.3200    32.6810 hx         1 E00       0.095922
     27 H16          5.6550    20.5630    32.7270 hx         1 E00       0.095922
@<TRIPOS>BOND
     1     1     2 ar  
     2     1     6 ar  
     3     1    12 1   
     4     2     3 ar  
     5     2    13 1   
     6     3     7 ar  
     7     3    14 1   
     8     4    10 1   
     9     4    15 1   
    10     4    16 1   
    11     4    17 1   
    12     5     6 ar  
    13     5     7 ar  
    14     5    18 1   
    15     6    19 1   
    16     7     8 1   
    17     8    10 1   
    18     8    20 1   
    19     8    21 1   
    20     9    10 1   
    21     9    22 1   
    22     9    23 1   
    23     9    24 1   
    24    10    11 1   
    25    11    25 1   
    26    11    26 1   
    27    11    27 1   
@<TRIPOS>SUBSTRUCTURE
     1 E00         1 TEMP              0 ****  ****    0 ROOT
