@<TRIPOS>MOLECULE
E00
   27    27     1     0     0
SMALL
No Charge or Current Charge


@<TRIPOS>ATOM
      1 C7           5.3250    19.5860    38.1400 ca         1 E00      -0.058000
      2 C8           6.4030    20.4840    38.2090 ca         1 E00      -0.098000
      3 C9           7.1430    20.7880    37.0530 ca         1 E00      -0.083500
      4 C1           7.1160    22.9980    34.6040 c3         1 E00       0.076567
      5 C5           5.7280    19.2920    35.7560 ca         1 E00      -0.083500
      6 C6           4.9890    18.9890    36.9130 ca         1 E00      -0.098000
      7 C4           6.8040    20.1980    35.8200 ca         1 E00      -0.175300
      8 C3           7.6050    20.5270    34.5680 c3         1 E00       0.166900
      9 C2           7.9990    21.9190    32.5310 c3         1 E00       0.076567
     10 N            7.0900    21.7220    33.7510 n4         1 E00      -0.502000
     11 C            5.6570    21.4560    33.2670 c3         1 E00       0.076567
     12 H1           4.7520    19.3510    39.0350 ha         1 E00       0.141000
     13 H2           6.6670    20.9450    39.1590 ha         1 E00       0.139000
     14 H3           7.9780    21.4820    37.1170 ha         1 E00       0.116000
     15 H4           6.4600    22.8660    35.4670 hx         1 E00       0.095922
     16 H5           8.1370    23.1840    34.9440 hx         1 E00       0.095922
     17 H6           6.7680    23.8410    34.0040 hx         1 E00       0.095922
     18 H7           5.4630    18.8230    34.8110 ha         1 E00       0.116000
     19 H8           4.1560    18.2910    36.8580 ha         1 E00       0.139000
     20 H9           7.6170    19.6590    33.9040 hx         1 E00       0.093700
     21 H10          8.6400    20.7410    34.8410 hx         1 E00       0.093700
     22 H11          9.0190    22.1140    32.8690 hx         1 E00       0.095922
     23 H12          7.9810    21.0160    31.9170 hx         1 E00       0.095922
     24 H13          7.6380    22.7670    31.9460 hx         1 E00       0.095922
     25 H14          5.0050    21.3270    34.1330 hx         1 E00       0.095922
     26 H15          5.3140    22.3040    32.6710 hx         1 E00       0.095922
     27 H16          5.6440    20.5490    32.6590 hx         1 E00       0.095922
@<TRIPOS>BOND
     1     1     2 ar  
     2     1     6 ar  
     3     1    12 1   
     4     2     3 ar  
     5     2    13 1   
     6     3     7 ar  
     7     3    14 1   
     8     4    10 1   
     9     4    15 1   
    10     4    16 1   
    11     4    17 1   
    12     5     6 ar  
    13     5     7 ar  
    14     5    18 1   
    15     6    19 1   
    16     7     8 1   
    17     8    10 1   
    18     8    20 1   
    19     8    21 1   
    20     9    10 1   
    21     9    22 1   
    22     9    23 1   
    23     9    24 1   
    24    10    11 1   
    25    11    25 1   
    26    11    26 1   
    27    11    27 1   
@<TRIPOS>SUBSTRUCTURE
     1 E00         1 TEMP              0 ****  ****    0 ROOT
