@<TRIPOS>MOLECULE
E01
   41    44     1     0     0
SMALL
No Charge or Current Charge


@<TRIPOS>ATOM
      1 C1          -3.2960    -0.0090    -0.2090 c6         1 E01       0.162500
      2 C2          -2.4570    -1.2770     0.0710 c6         1 E01      -0.073400
      3 C3          -1.1300    -1.2560    -0.7330 c6         1 E01      -0.066400
      4 C4          -0.2260     0.0020    -0.4340 c6         1 E01      -0.030000
      5 C5          -1.1400     1.2490    -0.7500 c6         1 E01      -0.066400
      6 C6          -2.4670     1.2690     0.0540 c6         1 E01      -0.073400
      7 C14          1.9410     1.2630    -1.1210 c6         1 E01      -0.067900
      8 C15          1.2060     1.2760     1.3220 c6         1 E01      -0.067900
      9 C12          2.4280     1.2840     0.3570 c6         1 E01      -0.058700
     10 C11          0.3220     0.0130     1.0570 c6         1 E01      -0.048700
     11 C10          1.2140    -1.2420     1.3370 c6         1 E01      -0.067900
     12 C7           1.0500     0.0000    -1.3720 c6         1 E01      -0.048700
     13 C8           1.9490    -1.2530    -1.1070 c6         1 E01      -0.067900
     14 C9           2.4360    -1.2540     0.3720 c6         1 E01      -0.058700
     15 C13          3.2930     0.0190     0.6240 c6         1 E01      -0.069400
     16 N1          -4.5310    -0.0090     0.5970 n8         1 E01      -0.996200
     17 H1          -3.6040    -0.0180    -1.2650 h1         1 E01       0.010700
     18 H2B         -2.2480    -1.3690     1.1450 hc         1 E01       0.044700
     19 H2A         -3.0330    -2.1700    -0.2060 hc         1 E01       0.044700
     20 H3B         -0.6100    -2.2020    -0.5520 hc         1 E01       0.038450
     21 H3A         -1.3750    -1.2670    -1.8040 hc         1 E01       0.038450
     22 H5B         -0.6260     2.2000    -0.5740 hc         1 E01       0.038450
     23 H5A         -1.3820     1.2540    -1.8220 hc         1 E01       0.038450
     24 H6B         -3.0510     2.1540    -0.2360 hc         1 E01       0.044700
     25 H6A         -2.2590     1.3780     1.1270 hc         1 E01       0.044700
     26 H14A         1.4090     2.1900    -1.3670 hc         1 E01       0.038450
     27 H14B         2.8090     1.2440    -1.7950 hc         1 E01       0.038450
     28 H15A         1.5580     1.2700     2.3630 hc         1 E01       0.038450
     29 H15B         0.6270     2.2020     1.2210 hc         1 E01       0.038450
     30 H12          3.0320     2.1850     0.5340 hc         1 E01       0.045700
     31 H11         -0.5080     0.0150     1.7730 hc         1 E01       0.048700
     32 H10B         1.5660    -1.2210     2.3780 hc         1 E01       0.038450
     33 H10A         0.6400    -2.1720     1.2470 hc         1 E01       0.038450
     34 H7           0.7330    -0.0070    -2.4240 hc         1 E01       0.048700
     35 H8A          1.4240    -2.1870    -1.3420 hc         1 E01       0.038450
     36 H8B          2.8170    -1.2360    -1.7800 hc         1 E01       0.038450
     37 H9           3.0460    -2.1490     0.5600 hc         1 E01       0.045700
     38 H13A         4.1770     0.0180    -0.0280 hc         1 E01       0.037700
     39 H13B         3.6700     0.0270     1.6560 hc         1 E01       0.037700
     40 H1B         -5.1050     0.7930     0.3130 hn         1 E01       0.391000
     41 H1A         -5.0990    -0.8180     0.3240 hn         1 E01       0.391000
@<TRIPOS>BOND
     1     1     2 1   
     2     1     6 1   
     3     1    16 1   
     4     1    17 1   
     5     2     3 1   
     6     2    18 1   
     7     2    19 1   
     8     3     4 1   
     9     3    20 1   
    10     3    21 1   
    11     4     5 1   
    12     4    10 1   
    13     4    12 1   
    14     5     6 1   
    15     5    22 1   
    16     5    23 1   
    17     6    24 1   
    18     6    25 1   
    19     7     9 1   
    20     7    12 1   
    21     7    26 1   
    22     7    27 1   
    23     8     9 1   
    24     8    10 1   
    25     8    28 1   
    26     8    29 1   
    27     9    15 1   
    28     9    30 1   
    29    10    11 1   
    30    10    31 1   
    31    11    14 1   
    32    11    32 1   
    33    11    33 1   
    34    12    13 1   
    35    12    34 1   
    36    13    14 1   
    37    13    35 1   
    38    13    36 1   
    39    14    15 1   
    40    14    37 1   
    41    15    38 1   
    42    15    39 1   
    43    16    40 1   
    44    16    41 1   
@<TRIPOS>SUBSTRUCTURE
     1 E01         1 TEMP              0 ****  ****    0 ROOT
