@<TRIPOS>MOLECULE
E01
   41    44     1     0     0
SMALL
abcg2


@<TRIPOS>ATOM
      1 C1          -3.2480    -0.0090    -0.2460 c6         1 E01       0.162500
      2 C2          -2.4190    -1.2460     0.0620 c6         1 E01      -0.073400
      3 C3          -1.0900    -1.2360    -0.6880 c6         1 E01      -0.066400
      4 C4          -0.2190     0.0020    -0.4030 c6         1 E01      -0.030000
      5 C5          -1.0990     1.2290    -0.7040 c6         1 E01      -0.066400
      6 C6          -2.4290     1.2380     0.0450 c6         1 E01      -0.073400
      7 C14          1.8840     1.2440    -1.1040 c6         1 E01      -0.067900
      8 C15          1.1890     1.2530     1.3040 c6         1 E01      -0.067900
      9 C12          2.3810     1.2640     0.3430 c6         1 E01      -0.058700
     10 C11          0.3220     0.0130     1.0500 c6         1 E01      -0.048700
     11 C10          1.1970    -1.2200     1.3180 c6         1 E01      -0.067900
     12 C7           1.0170     0.0010    -1.3360 c6         1 E01      -0.048700
     13 C8           1.8930    -1.2340    -1.0900 c6         1 E01      -0.067900
     14 C9           2.3890    -1.2340     0.3580 c6         1 E01      -0.058700
     15 C13          3.2360     0.0190     0.5900 c6         1 E01      -0.069400
     16 N1          -4.4680    -0.0080     0.5510 n8         1 E01      -0.996200
     17 H1          -3.4610    -0.0170    -1.3290 h1         1 E01       0.010700
     18 H2B         -2.2510    -1.3000     1.1430 hc         1 E01       0.044700
     19 H2A         -2.9780    -2.1470    -0.2070 hc         1 E01       0.044700
     20 H3B         -0.5590    -2.1620    -0.4690 hc         1 E01       0.038450
     21 H3A         -1.2910    -1.2620    -1.7670 hc         1 E01       0.038450
     22 H5B         -0.5760     2.1610    -0.4940 hc         1 E01       0.038450
     23 H5A         -1.2980     1.2420    -1.7830 hc         1 E01       0.038450
     24 H6B         -2.9950     2.1310    -0.2370 hc         1 E01       0.044700
     25 H6A         -2.2610     1.3090     1.1250 hc         1 E01       0.044700
     26 H14A         1.3410     2.1620    -1.3430 hc         1 E01       0.038450
     27 H14B         2.7430     1.2170    -1.7840 hc         1 E01       0.038450
     28 H15A         1.5510     1.2300     2.3370 hc         1 E01       0.038450
     29 H15B         0.6080     2.1750     1.2120 hc         1 E01       0.038450
     30 H12          2.9830     2.1630     0.5120 hc         1 E01       0.045700
     31 H11         -0.5120     0.0140     1.7580 hc         1 E01       0.048700
     32 H10B         1.5590    -1.1830     2.3510 hc         1 E01       0.038450
     33 H10A         0.6220    -2.1450     1.2370 hc         1 E01       0.038450
     34 H7           0.6610    -0.0060    -2.3740 hc         1 E01       0.048700
     35 H8A          1.3570    -2.1580    -1.3190 hc         1 E01       0.038450
     36 H8B          2.7520    -1.2080    -1.7700 hc         1 E01       0.038450
     37 H9           2.9970    -2.1260     0.5370 hc         1 E01       0.045700
     38 H13A         4.0990     0.0180    -0.0860 hc         1 E01       0.037700
     39 H13B         3.6340     0.0260     1.6110 hc         1 E01       0.037700
     40 H1B         -5.0320     0.7950     0.2970 hn         1 E01       0.391000
     41 H1A         -5.0290    -0.8160     0.3040 hn         1 E01       0.391000
@<TRIPOS>BOND
     1     1     2 1   
     2     1     6 1   
     3     1    16 1   
     4     1    17 1   
     5     2     3 1   
     6     2    18 1   
     7     2    19 1   
     8     3     4 1   
     9     3    20 1   
    10     3    21 1   
    11     4     5 1   
    12     4    10 1   
    13     4    12 1   
    14     5     6 1   
    15     5    22 1   
    16     5    23 1   
    17     6    24 1   
    18     6    25 1   
    19     7     9 1   
    20     7    12 1   
    21     7    26 1   
    22     7    27 1   
    23     8     9 1   
    24     8    10 1   
    25     8    28 1   
    26     8    29 1   
    27     9    15 1   
    28     9    30 1   
    29    10    11 1   
    30    10    31 1   
    31    11    14 1   
    32    11    32 1   
    33    11    33 1   
    34    12    13 1   
    35    12    34 1   
    36    13    14 1   
    37    13    35 1   
    38    13    36 1   
    39    14    15 1   
    40    14    37 1   
    41    15    38 1   
    42    15    39 1   
    43    16    40 1   
    44    16    41 1   
@<TRIPOS>SUBSTRUCTURE
     1 E01         1 TEMP              0 ****  ****    0 ROOT
