@<TRIPOS>MOLECULE
E02
   35    37     1     0     0
SMALL
No Charge or Current Charge


@<TRIPOS>ATOM
      1 N1          -3.5020    -0.8670     0.7750 na         1 E02      -0.180600
      2 C2          -4.2710    -0.9160     1.9420 cc         1 E02       0.424700
      3 N3          -5.4720    -0.3270     1.7520 nd         1 E02      -0.564100
      4 C4          -5.4280     0.1030     0.4260 ca         1 E02       0.070400
      5 C5          -4.2400    -0.2180    -0.1710 ca         1 E02      -0.070200
      6 C6          -3.9440     0.1130    -1.5020 ca         1 E02      -0.113000
      7 C7          -4.9310     0.8020    -2.2370 ca         1 E02      -0.090000
      8 C8          -6.1670     1.1370    -1.6320 ca         1 E02      -0.134000
      9 C9          -6.4240     0.7870    -0.2870 ca         1 E02      -0.045000
     10 C10         -2.1300    -1.3730     0.5480 c3         1 E02      -0.019400
     11 C11         -1.0140    -0.3340     0.7820 c          1 E02       0.552700
     12 O12         -1.2560     0.7400     1.3220 o          1 E02      -0.473100
     13 C13          0.3970    -0.6640     0.3400 ca         1 E02      -0.201600
     14 C14          1.3960     0.3350     0.3950 ca         1 E02       0.042000
     15 C15          2.7200     0.0610    -0.0140 ca         1 E02      -0.270500
     16 C16          3.0530    -1.2310    -0.4710 ca         1 E02       0.237000
     17 C17          2.0640    -2.2240    -0.5220 ca         1 E02      -0.141000
     18 C18          0.7470    -1.9510    -0.1240 ca         1 E02      -0.020000
     19 S19          3.9360     1.3770     0.0720 sy         1 E02       1.151600
     20 O20          4.8030     1.3790    -1.1030 o          1 E02      -0.534500
     21 Cl21         4.6840    -1.6900    -0.9710 cl         1 E02      -0.145000
     22 O22          3.3370     2.6060     0.5850 o          1 E02      -0.534500
     23 N23          4.9310     0.9010     1.2720 n8         1 E02      -1.032100
     24 H2          -3.9150    -1.3760     2.8550 h5         1 E02       0.058800
     25 H6          -2.9910    -0.1460    -1.9570 ha         1 E02       0.114000
     26 H7          -4.7420     1.0770    -3.2720 ha         1 E02       0.112000
     27 H8          -6.9230     1.6680    -2.2050 ha         1 E02       0.114000
     28 H9          -7.3680     1.0430     0.1860 ha         1 E02       0.129000
     29 H10         -1.9430    -2.2200     1.2180 h1         1 E02       0.080200
     30 H10A        -2.0490    -1.7350    -0.4830 h1         1 E02       0.080200
     31 H14          1.1370     1.3320     0.7520 ha         1 E02       0.168000
     32 H17          2.3230    -3.2200    -0.8710 ha         1 E02       0.138000
     33 H18          0.0150    -2.7550    -0.1740 ha         1 E02       0.119000
     34 HN23         5.8170     0.8940     0.7720 hn         1 E02       0.488500
     35 HN2A         4.9960     1.7650     1.8050 hn         1 E02       0.488500
@<TRIPOS>BOND
     1     1     2 1   
     2     1     5 1   
     3     1    10 1   
     4     2     3 2   
     5     2    24 1   
     6     3     4 1   
     7     4     5 ar  
     8     4     9 ar  
     9     5     6 ar  
    10     6     7 ar  
    11     6    25 1   
    12     7     8 ar  
    13     7    26 1   
    14     8     9 ar  
    15     8    27 1   
    16     9    28 1   
    17    10    11 1   
    18    10    29 1   
    19    10    30 1   
    20    11    12 2   
    21    11    13 1   
    22    13    14 ar  
    23    13    18 ar  
    24    14    15 ar  
    25    14    31 1   
    26    15    16 ar  
    27    15    19 1   
    28    16    17 ar  
    29    16    21 1   
    30    17    18 ar  
    31    17    32 1   
    32    18    33 1   
    33    19    20 2   
    34    19    22 2   
    35    19    23 1   
    36    23    34 1   
    37    23    35 1   
@<TRIPOS>SUBSTRUCTURE
     1 E02         1 TEMP              0 ****  ****    0 ROOT
