@<TRIPOS>MOLECULE
E02
   35    37     1     0     0
SMALL
bcc


@<TRIPOS>ATOM
      1 N1          -3.3800    -0.9220     0.6110 na         1 E02      -0.151300
      2 C2          -4.0200    -0.9190     1.8100 cc         1 E02       0.424700
      3 N3          -5.1620    -0.3000     1.7940 nd         1 E02      -0.564100
      4 C4          -5.2930     0.1620     0.5030 ca         1 E02       0.070400
      5 C5          -4.1720    -0.2120    -0.2560 ca         1 E02      -0.070200
      6 C6          -4.0270     0.1230    -1.5970 ca         1 E02      -0.131000
      7 C7          -5.0550     0.8550    -2.1660 ca         1 E02      -0.108000
      8 C8          -6.1830     1.2370    -1.4240 ca         1 E02      -0.152000
      9 C9          -6.3180     0.8980    -0.0900 ca         1 E02      -0.063000
     10 C10         -2.0630    -1.4190     0.3540 c3         1 E02      -0.048700
     11 C11         -1.0210    -0.3160     0.4450 c          1 E02       0.552700
     12 O12         -1.3410     0.8140     0.7230 o          1 E02      -0.473100
     13 C13          0.3950    -0.6820     0.1860 ca         1 E02      -0.201600
     14 C14          1.3570     0.3240     0.2190 ca         1 E02       0.024000
     15 C15          2.6900     0.0310    -0.0020 ca         1 E02      -0.270500
     16 C16          3.0770    -1.2860    -0.2580 ca         1 E02       0.145400
     17 C17          2.1260    -2.2910    -0.2950 ca         1 E02      -0.159000
     18 C18          0.7920    -1.9890    -0.0770 ca         1 E02      -0.038000
     19 S19          3.8600     1.3770     0.0170 sy         1 E02       1.293200
     20 O20          4.6820     1.3020    -1.1770 o          1 E02      -0.605300
     21 CL21         4.7180    -1.7150    -0.5190 cl         1 E02      -0.053400
     22 O22          3.0910     2.5850     0.2690 o          1 E02      -0.605300
     23 N23          4.8100     0.9800     1.2920 n8         1 E02      -0.921700
     24 H2          -3.5870    -1.4120     2.6700 h5         1 E02       0.058800
     25 H6          -3.1590    -0.1670    -2.1750 ha         1 E02       0.132000
     26 H7          -4.9850     1.1420    -3.2070 ha         1 E02       0.130000
     27 H8          -6.9620     1.8110    -1.9100 ha         1 E02       0.132000
     28 H9          -7.1880     1.1980     0.4800 ha         1 E02       0.147000
     29 H10         -1.8310    -2.2030     1.0780 h1         1 E02       0.080200
     30 H10A        -2.0280    -1.8910    -0.6310 h1         1 E02       0.080200
     31 H14          1.0580     1.3420     0.4220 ha         1 E02       0.186000
     32 H17          2.4250    -3.3110    -0.4940 ha         1 E02       0.156000
     33 H18          0.0770    -2.7990    -0.1120 ha         1 E02       0.137000
     34 HN23         5.7890     1.1940     1.1390 hn         1 E02       0.433300
     35 HN2A         4.4740     1.3330     2.1800 hn         1 E02       0.433300
@<TRIPOS>BOND
     1     1     2 1   
     2     1     5 1   
     3     1    10 1   
     4     2     3 2   
     5     2    24 1   
     6     3     4 1   
     7     4     5 ar  
     8     4     9 ar  
     9     5     6 ar  
    10     6     7 ar  
    11     6    25 1   
    12     7     8 ar  
    13     7    26 1   
    14     8     9 ar  
    15     8    27 1   
    16     9    28 1   
    17    10    11 1   
    18    10    29 1   
    19    10    30 1   
    20    11    12 2   
    21    11    13 1   
    22    13    14 ar  
    23    13    18 ar  
    24    14    15 ar  
    25    14    31 1   
    26    15    16 ar  
    27    15    19 1   
    28    16    17 ar  
    29    16    21 1   
    30    17    18 ar  
    31    17    32 1   
    32    18    33 1   
    33    19    20 2   
    34    19    22 2   
    35    19    23 1   
    36    23    34 1   
    37    23    35 1   
@<TRIPOS>SUBSTRUCTURE
     1 E02         1 TEMP              0 ****  ****    0 ROOT
