@<TRIPOS>MOLECULE
E03
   26    27     1     0     0
SMALL
bcc


@<TRIPOS>ATOM
      1 F1           4.6560    -1.1670     0.5880 f          1 E03      -0.164900
      2 N           -2.4340     0.8130     1.4440 n8         1 E03      -0.877800
      3 CA          -2.3340    -0.1750     0.3870 c3         1 E03       0.024500
      4 CB          -1.6690     0.3540    -0.9060 c3         1 E03      -0.046200
      5 CG          -0.2980     0.8890    -0.6670 cc         1 E03      -0.083400
      6 CD1          0.0870     2.1990    -0.6190 cd         1 E03      -0.151100
      7 NE1          1.4210     2.2930    -0.3140 na         1 E03      -0.183400
      8 CE2          1.9310     1.0440    -0.1450 ca         1 E03      -0.029200
      9 CD2          0.8780     0.1250    -0.3590 ca         1 E03      -0.109800
     10 CE3          1.1410    -1.2430    -0.2450 ca         1 E03      -0.026000
     11 CZ3          2.4170    -1.6660     0.0720 ca         1 E03      -0.220000
     12 CH2          3.4240    -0.7190     0.2750 ca         1 E03       0.141900
     13 CZ2          3.2260     0.6370     0.1770 ca         1 E03      -0.212000
     14 C           -3.7220    -0.7390     0.0130 c          1 E03       0.931600
     15 O           -4.7150    -0.0270     0.2620 o          1 E03      -0.835800
     16 OXT         -3.7270    -1.8490    -0.5550 o          1 E03      -0.835800
     17 H4          -1.7210    -1.0090     0.7500 h1         1 E03       0.046700
     18 H5          -1.6330    -0.4550    -1.6410 hc         1 E03       0.053700
     19 H6          -2.3000     1.1410    -1.3310 hc         1 E03       0.053700
     20 H7          -0.4980     3.0890    -0.7890 h4         1 E03       0.158000
     21 H8           1.9300     3.1540    -0.2110 hn         1 E03       0.287700
     22 H9           0.3560    -1.9730    -0.4010 ha         1 E03       0.158000
     23 H10          2.6460    -2.7200     0.1680 ha         1 E03       0.139000
     24 H11          4.0310     1.3410     0.3420 ha         1 E03       0.135000
     25 H           -1.5870     1.3670     1.4760 hn         1 E03       0.323300
     26 H2          -3.1910     1.4470     1.2190 hn         1 E03       0.323300
@<TRIPOS>BOND
     1     1    12 1   
     2     2     3 1   
     3     2    25 1   
     4     2    26 1   
     5     3     4 1   
     6     3    14 1   
     7     3    17 1   
     8     4     5 1   
     9     4    18 1   
    10     4    19 1   
    11     5     6 2   
    12     5     9 1   
    13     6     7 1   
    14     6    20 1   
    15     7     8 1   
    16     7    21 1   
    17     8     9 ar  
    18     8    13 ar  
    19     9    10 ar  
    20    10    11 ar  
    21    10    22 1   
    22    11    12 ar  
    23    11    23 1   
    24    12    13 ar  
    25    13    24 1   
    26    14    15 1   
    27    14    16 1   
@<TRIPOS>SUBSTRUCTURE
     1 E03         1 TEMP              0 ****  ****    0 ROOT
