@<TRIPOS>MOLECULE
E03
   26    27     1     0     0
SMALL
No Charge or Current Charge


@<TRIPOS>ATOM
      1 F1           4.6760    -1.2440     0.5010 f          1 E03      -0.164900
      2 N           -2.4660     0.8540     1.4690 n8         1 E03      -0.877800
      3 CA          -2.3730    -0.1870     0.3760 c3         1 E03       0.024500
      4 CB          -1.6740     0.4170    -0.8700 c3         1 E03      -0.046200
      5 CG          -0.2900     0.9520    -0.5990 cc         1 E03      -0.083400
      6 CD1          0.1070     2.2850    -0.5590 cd         1 E03      -0.151100
      7 NE1          1.4890     2.3650    -0.2650 na         1 E03      -0.183400
      8 CE2          1.9250     1.0600    -0.1350 ca         1 E03      -0.029200
      9 CD2          0.8940     0.1830    -0.3280 ca         1 E03      -0.109800
     10 CE3          1.0790    -1.2070    -0.2580 ca         1 E03      -0.026000
     11 CZ3          2.3770    -1.6850     0.0270 ca         1 E03      -0.220000
     12 CH2          3.4390    -0.7760     0.2290 ca         1 E03       0.141900
     13 CZ2          3.2220     0.6140     0.1490 ca         1 E03      -0.212000
     14 C           -3.7170    -0.9290    -0.0410 c          1 E03       0.931600
     15 O           -4.6680    -0.2590    -0.4390 o          1 E03      -0.835800
     16 OXT         -3.7910    -2.1450     0.1120 o          1 E03      -0.835800
     17 H4          -1.7090    -0.9730     0.7610 h1         1 E03       0.046700
     18 H5          -1.6100    -0.3560    -1.6460 hc         1 E03       0.053700
     19 H6          -2.3030     1.2130    -1.2890 hc         1 E03       0.053700
     20 H7          -0.4910     3.1770    -0.7130 h4         1 E03       0.158000
     21 H8           2.0470     3.2060    -0.1730 hn         1 E03       0.287700
     22 H9           0.2510    -1.8950    -0.4200 ha         1 E03       0.158000
     23 H10          2.5610    -2.7540     0.0900 ha         1 E03       0.139000
     24 H11          4.0390     1.3140     0.3020 ha         1 E03       0.135000
     25 H           -1.5660     1.3400     1.5300 hn         1 E03       0.323300
     26 H2          -3.1300     1.5790     1.1780 hn         1 E03       0.323300
@<TRIPOS>BOND
     1     1    12 1   
     2     2     3 1   
     3     2    25 1   
     4     2    26 1   
     5     3     4 1   
     6     3    14 1   
     7     3    17 1   
     8     4     5 1   
     9     4    18 1   
    10     4    19 1   
    11     5     6 2   
    12     5     9 1   
    13     6     7 1   
    14     6    20 1   
    15     7     8 1   
    16     7    21 1   
    17     8     9 ar  
    18     8    13 ar  
    19     9    10 ar  
    20    10    11 ar  
    21    10    22 1   
    22    11    12 ar  
    23    11    23 1   
    24    12    13 ar  
    25    13    24 1   
    26    14    15 1   
    27    14    16 1   
@<TRIPOS>SUBSTRUCTURE
     1 E03         1 TEMP              0 ****  ****    0 ROOT
