@<TRIPOS>MOLECULE
E04
   62    66     1     0     0
SMALL
abcg2


@<TRIPOS>ATOM
      1 O26          5.7080     0.8160     1.9330 o          1 E04      -0.508000
      2 C20          5.0780     0.5830     0.9290 c          1 E04       0.681100
      3 C21          5.6480     0.7970    -0.4610 c6         1 E04      -0.151000
      4 C25          7.1180     0.3830    -0.4880 c3         1 E04      -0.079100
      5 C24          5.5440     2.3070    -0.7440 c3         1 E04      -0.079100
      6 C22          4.8640     0.0020    -1.5040 c6         1 E04      -0.074400
      7 C23          3.3680     0.1580    -1.3110 c6         1 E04      -0.106400
      8 C17          2.9460    -0.3470     0.0640 c5         1 E04       0.221000
      9 O19          3.8140     0.2050     1.0760 os         1 E04      -0.461100
     10 C13          1.4800    -0.0170     0.4580 c5         1 E04      -0.035000
     11 C18          1.3170    -0.2030     1.9760 c3         1 E04      -0.075100
     12 C14          0.7330    -1.1010    -0.3320 c5         1 E04      -0.064700
     13 C15          1.5220    -2.3770    -0.0410 c5         1 E04      -0.068400
     14 C16          2.9790    -1.8970     0.1300 c5         1 E04      -0.099400
     15 C8          -0.7660    -1.0890    -0.0830 c6         1 E04      -0.047700
     16 C9          -1.3150     0.2910    -0.4810 c6         1 E04      -0.016400
     17 C11         -0.5830     1.4240     0.2520 c6         1 E04      -0.068400
     18 C12          0.9330     1.3480     0.0510 c6         1 E04      -0.063400
     19 C10         -2.8250     0.3470    -0.3520 ca         1 E04      -0.042300
     20 C1          -3.4920     1.5710    -0.2750 ca         1 E04      -0.121000
     21 C2          -4.8700     1.6510    -0.1870 ca         1 E04      -0.088000
     22 C3          -5.6360     0.4880    -0.1810 ca         1 E04      -0.152600
     23 C27         -7.1290     0.4890    -0.1120 c          1 E04       0.618700
     24 O29         -7.7810    -0.4820    -0.4740 o          1 E04      -0.607100
     25 N28         -7.7040     1.6050     0.3630 nt         1 E04      -0.605000
     26 C4          -4.9810    -0.7320    -0.2810 ca         1 E04      -0.059000
     27 C5          -3.5950    -0.8240    -0.3590 ca         1 E04      -0.082300
     28 C6          -2.9690    -2.1930    -0.4300 c6         1 E04      -0.031100
     29 C7          -1.5100    -2.1680    -0.8540 c6         1 E04      -0.070400
     30 H251         7.7190     0.9670     0.2070 hc         1 E04       0.043867
     31 H252         7.2420    -0.6730    -0.2450 hc         1 E04       0.043867
     32 H253         7.5170     0.5420    -1.4920 hc         1 E04       0.043867
     33 H241         5.9350     2.5120    -1.7420 hc         1 E04       0.043867
     34 H242         4.5170     2.6710    -0.7080 hc         1 E04       0.043867
     35 H243         6.1290     2.8830    -0.0270 hc         1 E04       0.043867
     36 H221         5.1530     0.3440    -2.5000 hc         1 E04       0.051200
     37 H222         5.1500    -1.0530    -1.4500 hc         1 E04       0.051200
     38 H231         3.0960     1.2070    -1.4430 hc         1 E04       0.059200
     39 H232         2.8320    -0.3960    -2.0820 hc         1 E04       0.059200
     40 H181         0.2700    -0.2220     2.2730 hc         1 E04       0.041033
     41 H182         1.7630    -1.1280     2.3400 hc         1 E04       0.041033
     42 H183         1.7820     0.6210     2.5180 hc         1 E04       0.041033
     43 H14          0.8570    -0.8720    -1.3990 hc         1 E04       0.043700
     44 H151         1.4250    -3.1120    -0.8400 hc         1 E04       0.048200
     45 H152         1.1630    -2.8560     0.8740 hc         1 E04       0.048200
     46 H161         3.6290    -2.3080    -0.6440 hc         1 E04       0.056700
     47 H162         3.3920    -2.2240     1.0850 hc         1 E04       0.056700
     48 H8          -0.9630    -1.2530     0.9840 hc         1 E04       0.060700
     49 H9          -1.0880     0.4120    -1.5520 hc         1 E04       0.055700
     50 H111        -0.9170     2.3930    -0.1220 hc         1 E04       0.045200
     51 H112        -0.8400     1.4020     1.3150 hc         1 E04       0.045200
     52 H121         1.1330     1.5310    -1.0080 hc         1 E04       0.044700
     53 H122         1.4240     2.1540     0.6040 hc         1 E04       0.044700
     54 H1          -2.9290     2.4950    -0.2940 ha         1 E04       0.113000
     55 H2          -5.3290     2.6310    -0.1490 ha         1 E04       0.109000
     56 H281        -7.1790     2.3520     0.7820 hn         1 E04       0.313000
     57 H282        -8.7060     1.6540     0.4410 hn         1 E04       0.313000
     58 H4          -5.5660    -1.6450    -0.2940 ha         1 E04       0.135000
     59 H61         -3.5540    -2.8250    -1.1020 hc         1 E04       0.052700
     60 H62         -3.0430    -2.6600     0.5580 hc         1 E04       0.052700
     61 H71         -1.4240    -1.9790    -1.9290 hc         1 E04       0.044700
     62 H72         -1.0670    -3.1500    -0.6710 hc         1 E04       0.044700
@<TRIPOS>BOND
     1     1     2 2   
     2     2     3 1   
     3     2     9 1   
     4     3     4 1   
     5     3     5 1   
     6     3     6 1   
     7     4    30 1   
     8     4    31 1   
     9     4    32 1   
    10     5    33 1   
    11     5    34 1   
    12     5    35 1   
    13     6     7 1   
    14     6    36 1   
    15     6    37 1   
    16     7     8 1   
    17     7    38 1   
    18     7    39 1   
    19     8     9 1   
    20     8    10 1   
    21     8    14 1   
    22    10    11 1   
    23    10    12 1   
    24    10    18 1   
    25    11    40 1   
    26    11    41 1   
    27    11    42 1   
    28    12    13 1   
    29    12    15 1   
    30    12    43 1   
    31    13    14 1   
    32    13    44 1   
    33    13    45 1   
    34    14    46 1   
    35    14    47 1   
    36    15    16 1   
    37    15    29 1   
    38    15    48 1   
    39    16    17 1   
    40    16    19 1   
    41    16    49 1   
    42    17    18 1   
    43    17    50 1   
    44    17    51 1   
    45    18    52 1   
    46    18    53 1   
    47    19    20 ar  
    48    19    27 ar  
    49    20    21 ar  
    50    20    54 1   
    51    21    22 ar  
    52    21    55 1   
    53    22    23 1   
    54    22    26 ar  
    55    23    24 2   
    56    23    25 1   
    57    25    56 1   
    58    25    57 1   
    59    26    27 ar  
    60    26    58 1   
    61    27    28 1   
    62    28    29 1   
    63    28    59 1   
    64    28    60 1   
    65    29    61 1   
    66    29    62 1   
@<TRIPOS>SUBSTRUCTURE
     1 E04         1 TEMP              0 ****  ****    0 ROOT
