@<TRIPOS>MOLECULE
E04
   62    66     1     0     0
SMALL
No Charge or Current Charge


@<TRIPOS>ATOM
      1 O26          5.9550     0.2830     1.8580 o          1 E04      -0.508000
      2 C20          5.2090     0.3850     0.8930 c          1 E04       0.681100
      3 C21          5.7740     0.6270    -0.5490 c6         1 E04      -0.151000
      4 C25          7.1880    -0.0250    -0.6980 c3         1 E04      -0.079100
      5 C24          5.9600     2.1740    -0.6900 c3         1 E04      -0.079100
      6 C22          4.8400     0.1110    -1.6730 c6         1 E04      -0.074400
      7 C23          3.3680     0.4000    -1.3490 c6         1 E04      -0.106400
      8 C17          2.9790    -0.1360     0.0660 c5         1 E04       0.221000
      9 O19          3.8450     0.4370     1.0850 os         1 E04      -0.461100
     10 C13          1.4840     0.1270     0.5510 c5         1 E04      -0.035000
     11 C18          1.3240    -0.0440     2.1130 c3         1 E04      -0.075100
     12 C14          0.7670    -0.9770    -0.2870 c5         1 E04      -0.064700
     13 C15          1.5930    -2.2430     0.0720 c5         1 E04      -0.068400
     14 C16          3.0620    -1.7100     0.2180 c5         1 E04      -0.099400
     15 C8          -0.7730    -1.0160    -0.0660 c6         1 E04      -0.047700
     16 C9          -1.3970     0.3730    -0.4320 c6         1 E04      -0.016400
     17 C11         -0.6880     1.5290     0.3570 c6         1 E04      -0.068400
     18 C12          0.8610     1.5100     0.1770 c6         1 E04      -0.063400
     19 C10         -2.9430     0.3550    -0.3110 ca         1 E04      -0.042300
     20 C1          -3.6790     1.5560    -0.2010 ca         1 E04      -0.121000
     21 C2          -5.0800     1.5460    -0.1150 ca         1 E04      -0.088000
     22 C3          -5.7950     0.3300    -0.1470 ca         1 E04      -0.152600
     23 C27         -7.3060     0.2810    -0.0530 c          1 E04       0.618700
     24 O29         -7.9360    -0.7640    -0.0870 o          1 E04      -0.607100
     25 N28         -7.9780     1.4450     0.0720 nt         1 E04      -0.605000
     26 C4          -5.0650    -0.8700    -0.2780 ca         1 E04      -0.059000
     27 C5          -3.6600    -0.8690    -0.3700 ca         1 E04      -0.082300
     28 C6          -2.9520    -2.2230    -0.5090 c6         1 E04      -0.031100
     29 C7          -1.4620    -2.1210    -0.8950 c6         1 E04      -0.070400
     30 H251         7.9070     0.3860     0.0210 hc         1 E04       0.043867
     31 H252         7.1430    -1.1090    -0.5350 hc         1 E04       0.043867
     32 H253         7.6000     0.1400    -1.7010 hc         1 E04       0.043867
     33 H241         6.3570     2.4450    -1.6760 hc         1 E04       0.043867
     34 H242         5.0140     2.7130    -0.5560 hc         1 E04       0.043867
     35 H243         6.6590     2.5630     0.0610 hc         1 E04       0.043867
     36 H221         5.1070     0.5690    -2.6360 hc         1 E04       0.051200
     37 H222         4.9880    -0.9670    -1.8200 hc         1 E04       0.051200
     38 H231         3.2010     1.4830    -1.4020 hc         1 E04       0.059200
     39 H232         2.7440    -0.0450    -2.1330 hc         1 E04       0.059200
     40 H181         0.2800    -0.0850     2.4370 hc         1 E04       0.041033
     41 H182         1.8010    -0.9510     2.4990 hc         1 E04       0.041033
     42 H183         1.7800     0.7970     2.6480 hc         1 E04       0.041033
     43 H14          0.8610    -0.7820    -1.3600 hc         1 E04       0.043700
     44 H151         1.5150    -3.0100    -0.7080 hc         1 E04       0.048200
     45 H152         1.2430    -2.7070     1.0020 hc         1 E04       0.048200
     46 H161         3.7090    -2.1770    -0.5300 hc         1 E04       0.056700
     47 H162         3.4770    -2.0040     1.1890 hc         1 E04       0.056700
     48 H8          -0.9730    -1.2280     0.9930 hc         1 E04       0.060700
     49 H9          -1.1850     0.5520    -1.4960 hc         1 E04       0.055700
     50 H111        -1.0390     2.5030    -0.0030 hc         1 E04       0.045200
     51 H112        -0.9620     1.4850     1.4190 hc         1 E04       0.045200
     52 H121         1.0650     1.7510    -0.8730 hc         1 E04       0.044700
     53 H122         1.3230     2.3120     0.7690 hc         1 E04       0.044700
     54 H1          -3.1790     2.5180    -0.1890 ha         1 E04       0.113000
     55 H2          -5.5960     2.4990    -0.0270 ha         1 E04       0.109000
     56 H281        -7.4770     2.3190     0.1020 hn         1 E04       0.313000
     57 H282        -8.9850     1.4270     0.1360 hn         1 E04       0.313000
     58 H4          -5.5940    -1.8210    -0.3110 ha         1 E04       0.135000
     59 H61         -3.4740    -2.8450    -1.2490 hc         1 E04       0.052700
     60 H62         -3.0350    -2.7580     0.4470 hc         1 E04       0.052700
     61 H71         -1.3690    -1.9000    -1.9680 hc         1 E04       0.044700
     62 H72         -0.9800    -3.0940    -0.7310 hc         1 E04       0.044700
@<TRIPOS>BOND
     1     1     2 2   
     2     2     3 1   
     3     2     9 1   
     4     3     4 1   
     5     3     5 1   
     6     3     6 1   
     7     4    30 1   
     8     4    31 1   
     9     4    32 1   
    10     5    33 1   
    11     5    34 1   
    12     5    35 1   
    13     6     7 1   
    14     6    36 1   
    15     6    37 1   
    16     7     8 1   
    17     7    38 1   
    18     7    39 1   
    19     8     9 1   
    20     8    10 1   
    21     8    14 1   
    22    10    11 1   
    23    10    12 1   
    24    10    18 1   
    25    11    40 1   
    26    11    41 1   
    27    11    42 1   
    28    12    13 1   
    29    12    15 1   
    30    12    43 1   
    31    13    14 1   
    32    13    44 1   
    33    13    45 1   
    34    14    46 1   
    35    14    47 1   
    36    15    16 1   
    37    15    29 1   
    38    15    48 1   
    39    16    17 1   
    40    16    19 1   
    41    16    49 1   
    42    17    18 1   
    43    17    50 1   
    44    17    51 1   
    45    18    52 1   
    46    18    53 1   
    47    19    20 ar  
    48    19    27 ar  
    49    20    21 ar  
    50    20    54 1   
    51    21    22 ar  
    52    21    55 1   
    53    22    23 1   
    54    22    26 ar  
    55    23    24 2   
    56    23    25 1   
    57    25    56 1   
    58    25    57 1   
    59    26    27 ar  
    60    26    58 1   
    61    27    28 1   
    62    28    29 1   
    63    28    59 1   
    64    28    60 1   
    65    29    61 1   
    66    29    62 1   
@<TRIPOS>SUBSTRUCTURE
     1 E04         1 TEMP              0 ****  ****    0 ROOT
