@<TRIPOS>MOLECULE
E05
   67    68     1     0     0
SMALL
abcg2


@<TRIPOS>ATOM
      1 C6           4.2580     3.4920    -0.9760 c3         1 E05      -0.088100
      2 C7           3.4870     3.4340     0.3440 c3         1 E05      -0.040200
      3 C8           2.2980     2.5030     0.3050 ce         1 E05      -0.045400
      4 O9          -5.8010    -3.3480    -0.3830 oh         1 E05      -0.661000
      5 C10         -6.8040    -2.3390    -0.4290 c3         1 E05       0.184000
      6 C11         -7.1180    -1.9760    -1.8800 c3         1 E05      -0.121100
      7 C12         -8.0740    -2.8420     0.2570 c3         1 E05      -0.121100
      8 C13         -6.2480    -1.1400     0.3440 c3         1 E05      -0.060400
      9 C14         -4.9630    -0.5290    -0.2030 c3         1 E05      -0.070400
     10 C15         -4.4480     0.6060     0.6740 c3         1 E05      -0.077400
     11 C16         -3.1850     1.2550     0.1250 c3         1 E05      -0.073400
     12 C18         -1.4530     3.0560     0.4310 ca         1 E05      -0.078300
     13 C19         -0.1860     2.5180     0.6300 ca         1 E05      -0.100000
     14 C20         -1.5730     4.2120    -0.3380 ca         1 E05      -0.105000
     15 C21         -0.4460     4.8120    -0.8800 ca         1 E05      -0.111000
     16 C22          0.8110     4.2670    -0.6660 ca         1 E05      -0.103000
     17 C23          0.9640     3.0960     0.0830 ca         1 E05      -0.046800
     18 C24          2.4280     1.1670     0.4340 cf         1 E05      -0.175000
     19 C25          3.6720     0.4640     0.6530 cf         1 E05      -0.172000
     20 C26          3.8130    -0.8660     0.8000 ce         1 E05      -0.056200
     21 C27          2.7030    -1.8360     0.7950 ce         1 E05      -0.129200
     22 C28          1.6530    -1.7770     1.6110 c2         1 E05      -0.293000
     23 C29          2.8700    -2.9600    -0.2030 c6         1 E05       0.212500
     24 O30          2.7900    -2.4570    -1.5230 oh         1 E05      -0.656000
     25 C31          4.2340    -3.6190    -0.0430 c6         1 E05      -0.065400
     26 C32          5.3700    -2.6080    -0.1040 c6         1 E05       0.176300
     27 O33          6.5770    -3.3090     0.1080 oh         1 E05      -0.661000
     28 C34          5.1650    -1.5080     0.9430 c6         1 E05      -0.075200
     29 H1           5.1100     4.1680    -0.8930 hc         1 E05       0.035033
     30 H2           4.6380     2.5090    -1.2550 hc         1 E05       0.035033
     31 H3           3.6340     3.8480    -1.7960 hc         1 E05       0.035033
     32 H4           4.1710     3.1290     1.1390 hc         1 E05       0.046200
     33 H5           3.1580     4.4390     0.6140 hc         1 E05       0.046200
     34 H6          -6.1240    -4.1120    -0.8720 ho         1 E05       0.438000
     35 H7          -6.2240    -1.6680    -2.4230 hc         1 E05       0.040200
     36 H8          -7.5490    -2.8310    -2.4070 hc         1 E05       0.040200
     37 H9          -7.8420    -1.1610    -1.9350 hc         1 E05       0.040200
     38 H10         -8.8580    -2.0830     0.2470 hc         1 E05       0.040200
     39 H11         -8.4660    -3.7260    -0.2530 hc         1 E05       0.040200
     40 H12         -7.8800    -3.1100     1.2970 hc         1 E05       0.040200
     41 H13         -7.0250    -0.3700     0.3800 hc         1 E05       0.043200
     42 H14         -6.0820    -1.4490     1.3830 hc         1 E05       0.043200
     43 H15         -4.1900    -1.2980    -0.2880 hc         1 E05       0.045700
     44 H16         -5.1280    -0.1450    -1.2140 hc         1 E05       0.045700
     45 H17         -5.2280     1.3690     0.7790 hc         1 E05       0.035700
     46 H18         -4.2550     0.2280     1.6840 hc         1 E05       0.035700
     47 H19         -2.4010     0.4990     0.0130 hc         1 E05       0.042200
     48 H20         -3.3810     1.6450    -0.8790 hc         1 E05       0.042200
     49 H21         -3.4600     3.1300     1.1500 hc         1 E05       0.046200
     50 H22         -2.4340     1.9910     2.0040 hc         1 E05       0.046200
     51 H23         -0.0900     1.6400     1.2600 ha         1 E05       0.111000
     52 H24         -2.5510     4.6500    -0.5000 ha         1 E05       0.111000
     53 H25         -0.5440     5.7140    -1.4700 ha         1 E05       0.112000
     54 H26          1.6740     4.7560    -1.1010 ha         1 E05       0.114000
     55 H27          1.5420     0.5490     0.3390 ha         1 E05       0.176000
     56 H28          4.5810     1.0570     0.6740 ha         1 E05       0.173000
     57 H29          1.5400    -0.9890     2.3460 ha         1 E05       0.169500
     58 H30          0.8750    -2.5300     1.5810 ha         1 E05       0.169500
     59 H31          2.0910    -3.7120    -0.0250 h1         1 E05       0.038700
     60 H32          1.9570    -1.9820    -1.6120 ho         1 E05       0.446000
     61 H33          4.2560    -4.1340     0.9220 hc         1 E05       0.062700
     62 H34          4.3630    -4.3820    -0.8160 hc         1 E05       0.062700
     63 H35          5.3720    -2.1360    -1.0960 h1         1 E05       0.049700
     64 H36          7.3080    -2.6980    -0.0270 ho         1 E05       0.442000
     65 H37          5.9560    -0.7570     0.8610 hc         1 E05       0.052700
     66 H38          5.2470    -1.9640     1.9370 hc         1 E05       0.052700
     67 C17         -2.6680     2.3890     1.0120 c3         1 E05      -0.031100
@<TRIPOS>BOND
     1     1     2 1   
     2     1    29 1   
     3     1    30 1   
     4     1    31 1   
     5     2     3 1   
     6     2    32 1   
     7     2    33 1   
     8     3    17 1   
     9     3    18 2   
    10     4     5 1   
    11     4    34 1   
    12     5     6 1   
    13     5     7 1   
    14     5     8 1   
    15     6    35 1   
    16     6    36 1   
    17     6    37 1   
    18     7    38 1   
    19     7    39 1   
    20     7    40 1   
    21     8     9 1   
    22     8    41 1   
    23     8    42 1   
    24     9    10 1   
    25     9    43 1   
    26     9    44 1   
    27    10    11 1   
    28    10    45 1   
    29    10    46 1   
    30    11    47 1   
    31    11    48 1   
    32    11    67 1   
    33    12    13 ar  
    34    12    14 ar  
    35    12    67 1   
    36    13    17 ar  
    37    13    51 1   
    38    14    15 ar  
    39    14    52 1   
    40    15    16 ar  
    41    15    53 1   
    42    16    17 ar  
    43    16    54 1   
    44    18    19 1   
    45    18    55 1   
    46    19    20 2   
    47    19    56 1   
    48    20    21 1   
    49    20    28 1   
    50    21    22 2   
    51    21    23 1   
    52    22    57 1   
    53    22    58 1   
    54    23    24 1   
    55    23    25 1   
    56    23    59 1   
    57    24    60 1   
    58    25    26 1   
    59    25    61 1   
    60    25    62 1   
    61    26    27 1   
    62    26    28 1   
    63    26    63 1   
    64    27    64 1   
    65    28    65 1   
    66    28    66 1   
    67    49    67 1   
    68    50    67 1   
@<TRIPOS>SUBSTRUCTURE
     1 E05         1 TEMP              0 ****  ****    0 ROOT
