@<TRIPOS>MOLECULE
E05
   67    68     1     0     0
SMALL
No Charge or Current Charge


@<TRIPOS>ATOM
      1 C6           4.4560     3.6480    -0.4470 c3         1 E05      -0.088100
      2 C7           3.4110     3.4560     0.6740 c3         1 E05      -0.040200
      3 C8           2.2670     2.5160     0.2960 ce         1 E05      -0.045400
      4 O9          -5.7760    -3.4320    -0.0800 oh         1 E05      -0.661000
      5 C10         -6.7780    -2.4240    -0.2190 c3         1 E05       0.184000
      6 C11         -7.0580    -2.2350    -1.7300 c3         1 E05      -0.121100
      7 C12         -8.0490    -2.9370     0.4950 c3         1 E05      -0.121100
      8 C13         -6.2740    -1.1140     0.4600 c3         1 E05      -0.060400
      9 C14         -4.9730    -0.4980    -0.1200 c3         1 E05      -0.070400
     10 C15         -4.5110     0.7600     0.6490 c3         1 E05      -0.077400
     11 C16         -3.2200     1.3810     0.0720 c3         1 E05      -0.073400
     12 C18         -1.4810     3.2310     0.2500 ca         1 E05      -0.078300
     13 C19         -0.2340     2.6400     0.5280 ca         1 E05      -0.100000
     14 C20         -1.5400     4.3670    -0.5770 ca         1 E05      -0.105000
     15 C21         -0.3610     4.9060    -1.1170 ca         1 E05      -0.111000
     16 C22          0.8810     4.3120    -0.8370 ca         1 E05      -0.103000
     17 C23          0.9570     3.1710    -0.0110 ca         1 E05      -0.046800
     18 C24          2.4190     1.1570     0.2880 cf         1 E05      -0.175000
     19 C25          3.6270     0.3940     0.6090 cf         1 E05      -0.172000
     20 C26          3.7320    -0.9670     0.6480 ce         1 E05      -0.056200
     21 C27          2.6260    -1.9220     0.4400 ce         1 E05      -0.129200
     22 C28          1.4520    -1.8520     1.1070 c2         1 E05      -0.293000
     23 C29          2.9220    -3.0540    -0.5550 c6         1 E05       0.212500
     24 O30          2.9370    -2.5180    -1.8790 oh         1 E05      -0.656000
     25 C31          4.2690    -3.7430    -0.2260 c6         1 E05      -0.065400
     26 C32          5.4220    -2.7200    -0.0760 c6         1 E05       0.176300
     27 O33          6.6290    -3.3970     0.2970 oh         1 E05      -0.661000
     28 C34          5.0650    -1.6470     0.9840 c6         1 E05      -0.075200
     29 H1           5.2490     4.3280    -0.1150 hc         1 E05       0.035033
     30 H2           4.9190     2.6950    -0.7250 hc         1 E05       0.035033
     31 H3           3.9960     4.0750    -1.3450 hc         1 E05       0.035033
     32 H4           3.9210     3.0880     1.5720 hc         1 E05       0.046200
     33 H5           3.0190     4.4410     0.9550 hc         1 E05       0.046200
     34 H6          -6.1240    -4.2400    -0.5140 ho         1 E05       0.438000
     35 H7          -6.1400    -2.0060    -2.2830 hc         1 E05       0.040200
     36 H8          -7.4880    -3.1450    -2.1660 hc         1 E05       0.040200
     37 H9          -7.7680    -1.4160    -1.8920 hc         1 E05       0.040200
     38 H10         -8.8600    -2.2020     0.4180 hc         1 E05       0.040200
     39 H11         -8.4020    -3.8760     0.0520 hc         1 E05       0.040200
     40 H12         -7.8560    -3.1160     1.5600 hc         1 E05       0.040200
     41 H13         -7.0700    -0.3600     0.4040 hc         1 E05       0.043200
     42 H14         -6.1170    -1.3110     1.5280 hc         1 E05       0.043200
     43 H15         -4.1710    -1.2450    -0.0960 hc         1 E05       0.045700
     44 H16         -5.1300    -0.2270    -1.1710 hc         1 E05       0.045700
     45 H17         -5.3120     1.5100     0.6270 hc         1 E05       0.035700
     46 H18         -4.3450     0.4980     1.7010 hc         1 E05       0.035700
     47 H19         -2.4190     0.6310     0.0910 hc         1 E05       0.042200
     48 H20         -3.3840     1.6460    -0.9800 hc         1 E05       0.042200
     49 H21         -3.5610     3.3820     0.8320 hc         1 E05       0.046200
     50 H22         -2.5900     2.3750     1.8920 hc         1 E05       0.046200
     51 H23         -0.1900     1.7660     1.1730 ha         1 E05       0.111000
     52 H24         -2.4970     4.8320    -0.8030 ha         1 E05       0.111000
     53 H25         -0.4100     5.7840    -1.7580 ha         1 E05       0.112000
     54 H26          1.7800     4.7390    -1.2710 ha         1 E05       0.114000
     55 H27          1.5470     0.5700     0.0010 ha         1 E05       0.176000
     56 H28          4.5300     0.9660     0.8230 ha         1 E05       0.173000
     57 H29          1.2570    -1.0670     1.8370 ha         1 E05       0.169500
     58 H30          0.6560    -2.5810     0.9530 ha         1 E05       0.169500
     59 H31          2.1280    -3.8120    -0.4790 h1         1 E05       0.038700
     60 H32          2.2110    -1.8580    -1.9030 ho         1 E05       0.446000
     61 H33          4.1600    -4.3090     0.7090 hc         1 E05       0.062700
     62 H34          4.5140    -4.4760    -1.0060 hc         1 E05       0.062700
     63 H35          5.5630    -2.2150    -1.0440 h1         1 E05       0.049700
     64 H36          7.3410    -2.7200     0.3040 ho         1 E05       0.442000
     65 H37          5.8740    -0.9060     1.0460 hc         1 E05       0.052700
     66 H38          4.9920    -2.1110     1.9770 hc         1 E05       0.052700
     67 C17         -2.7550     2.6370     0.8390 c3         1 E05      -0.031100
@<TRIPOS>BOND
     1     1     2 1   
     2     1    29 1   
     3     1    30 1   
     4     1    31 1   
     5     2     3 1   
     6     2    32 1   
     7     2    33 1   
     8     3    17 1   
     9     3    18 2   
    10     4     5 1   
    11     4    34 1   
    12     5     6 1   
    13     5     7 1   
    14     5     8 1   
    15     6    35 1   
    16     6    36 1   
    17     6    37 1   
    18     7    38 1   
    19     7    39 1   
    20     7    40 1   
    21     8     9 1   
    22     8    41 1   
    23     8    42 1   
    24     9    10 1   
    25     9    43 1   
    26     9    44 1   
    27    10    11 1   
    28    10    45 1   
    29    10    46 1   
    30    11    47 1   
    31    11    48 1   
    32    11    67 1   
    33    12    13 ar  
    34    12    14 ar  
    35    12    67 1   
    36    13    17 ar  
    37    13    51 1   
    38    14    15 ar  
    39    14    52 1   
    40    15    16 ar  
    41    15    53 1   
    42    16    17 ar  
    43    16    54 1   
    44    18    19 1   
    45    18    55 1   
    46    19    20 2   
    47    19    56 1   
    48    20    21 1   
    49    20    28 1   
    50    21    22 2   
    51    21    23 1   
    52    22    57 1   
    53    22    58 1   
    54    23    24 1   
    55    23    25 1   
    56    23    59 1   
    57    24    60 1   
    58    25    26 1   
    59    25    61 1   
    60    25    62 1   
    61    26    27 1   
    62    26    28 1   
    63    26    63 1   
    64    27    64 1   
    65    28    65 1   
    66    28    66 1   
    67    49    67 1   
    68    50    67 1   
@<TRIPOS>SUBSTRUCTURE
     1 E05         1 TEMP              0 ****  ****    0 ROOT
