@<TRIPOS>MOLECULE
E09
   39    41     1     0     0
SMALL
No Charge or Current Charge


@<TRIPOS>ATOM
      1 C1           0.0910    -0.2840    -3.0750 cc         1 E09       0.067800
      2 C2          -0.8500    -0.5640    -1.9220 c          1 E09       0.607900
      3 C3          -0.1890    -0.5640    -0.5820 cc         1 E09      -0.183600
      4 C4           1.1600    -0.3710    -0.4240 cd         1 E09      -0.219600
      5 C5           1.4500    -0.1110    -2.8820 cd         1 E09      -0.334200
      6 C6           2.0910    -0.1410    -1.5570 c          1 E09       0.616900
      7 O8          -2.0510    -0.7690    -2.0770 o          1 E09      -0.494100
      8 O9           3.2960     0.0170    -1.4220 o          1 E09      -0.536100
      9 N1          -0.3510    -0.2290    -4.4390 nm         1 E09      -0.572400
     10 C11         -0.2140     0.9560    -5.2900 cx         1 E09       0.098800
     11 C12         -1.5770     0.4230    -4.9070 cx         1 E09       0.098800
     12 C17         -0.7830    -0.7640     0.6950 cc         1 E09      -0.092300
     13 C18          0.2180    -0.6900     1.6370 cd         1 E09      -0.138300
     14 N19          1.4210    -0.4360     0.9500 na         1 E09       0.090000
     15 C20         -2.2590    -1.0020     0.9390 c3         1 E09       0.232900
     16 O21         -2.9740     0.2390     0.9620 oh         1 E09      -0.654000
     17 C25          0.1050    -0.8340     3.1410 c3         1 E09      -0.014100
     18 C26         -0.0700     0.5280     3.8460 c3         1 E09      -0.085400
     19 C7          -0.1840     0.4020     5.3770 c3         1 E09       0.164600
     20 C31          2.7480    -0.2570     1.5670 c3         1 E09       0.048900
     21 O1          -0.3390     1.7010     5.9570 oh         1 E09      -0.657000
     22 H51          2.1310     0.0600    -3.7050 ha         1 E09       0.206000
     23 H111         0.1400     1.8710    -4.8130 h1         1 E09       0.086450
     24 H112         0.1350     0.7940    -6.3100 h1         1 E09       0.086450
     25 H121        -2.1560    -0.1020    -5.6680 h1         1 E09       0.086450
     26 H122        -2.1630     0.9770    -4.1740 h1         1 E09       0.086450
     27 H201        -2.6610    -1.6670     0.1640 h1         1 E09       0.030700
     28 H202        -2.3890    -1.5260     1.8940 h1         1 E09       0.030700
     29 H21         -3.9230     0.0130     1.0730 ho         1 E09       0.441000
     30 H251        -0.7450    -1.4780     3.3970 hc         1 E09       0.051700
     31 H252         0.9870    -1.3450     3.5450 hc         1 E09       0.051700
     32 H261         0.7800     1.1760     3.6000 hc         1 E09       0.066200
     33 H262        -0.9700     1.0190     3.4560 hc         1 E09       0.066200
     34 H71         -1.0470    -0.2300     5.6260 h1         1 E09       0.013200
     35 H72          0.7180    -0.0840     5.7700 h1         1 E09       0.013200
     36 H311         3.3690    -1.1350     1.3530 h1         1 E09       0.065033
     37 H312         3.2270     0.6370     1.1510 h1         1 E09       0.065033
     38 H313         2.6630    -0.1310     2.6510 h1         1 E09       0.065033
     39 HO1         -0.4100     1.5720     6.9290 ho         1 E09       0.443000
@<TRIPOS>BOND
     1     1     2 1   
     2     1     5 2   
     3     1     9 1   
     4     2     3 1   
     5     2     7 2   
     6     3     4 2   
     7     3    12 1   
     8     4     6 1   
     9     4    14 1   
    10     5     6 1   
    11     5    22 1   
    12     6     8 2   
    13     9    10 1   
    14     9    11 1   
    15    10    11 1   
    16    10    23 1   
    17    10    24 1   
    18    11    25 1   
    19    11    26 1   
    20    12    13 2   
    21    12    15 1   
    22    13    14 1   
    23    13    17 1   
    24    14    20 1   
    25    15    16 1   
    26    15    27 1   
    27    15    28 1   
    28    16    29 1   
    29    17    18 1   
    30    17    30 1   
    31    17    31 1   
    32    18    19 1   
    33    18    32 1   
    34    18    33 1   
    35    19    21 1   
    36    19    34 1   
    37    19    35 1   
    38    20    36 1   
    39    20    37 1   
    40    20    38 1   
    41    21    39 1   
@<TRIPOS>SUBSTRUCTURE
     1 E09         1 TEMP              0 ****  ****    0 ROOT
