@<TRIPOS>MOLECULE
E09
   39    41     1     0     0
SMALL
abcg2


@<TRIPOS>ATOM
      1 C1           0.0990    -0.2080    -3.0470 cc         1 E09       0.067800
      2 C2          -0.8550    -0.5150    -1.9160 c          1 E09       0.607900
      3 C3          -0.2650    -0.5380    -0.5900 cc         1 E09      -0.183600
      4 C4           1.0830    -0.2960    -0.4040 cd         1 E09      -0.219600
      5 C5           1.4090     0.0230    -2.8230 cd         1 E09      -0.334200
      6 C6           2.0130    -0.0080    -1.4900 c          1 E09       0.616900
      7 O8          -2.0270    -0.7220    -2.1500 o          1 E09      -0.494100
      8 O9           3.2050     0.2030    -1.3230 o          1 E09      -0.536100
      9 N1          -0.4570    -0.2750    -4.2930 nm         1 E09      -0.572400
     10 C11         -0.0980     0.5950    -5.3780 cx         1 E09       0.098800
     11 C12         -1.4600     0.6370    -4.7830 cx         1 E09       0.098800
     12 C17         -0.8330    -0.8010     0.6760 cc         1 E09      -0.092300
     13 C18          0.2000    -0.6990     1.5910 cd         1 E09      -0.138300
     14 N19          1.3510    -0.3890     0.9230 na         1 E09       0.090000
     15 C20         -2.2610    -1.0650     1.0100 c3         1 E09       0.232900
     16 O21         -2.9100     0.1740     1.2320 oh         1 E09      -0.654000
     17 C25          0.1230    -0.8290     3.0730 c3         1 E09      -0.014100
     18 C26         -0.1000     0.5140     3.7710 c3         1 E09      -0.085400
     19 C7          -0.1770     0.3470     5.2750 c3         1 E09       0.164600
     20 C31          2.6520    -0.1840     1.5350 c3         1 E09       0.048900
     21 O1          -0.3880     1.6110     5.8640 oh         1 E09      -0.657000
     22 H51          2.0780     0.2360    -3.6500 ha         1 E09       0.206000
     23 H111         0.5740     1.4190    -5.1630 h1         1 E09       0.086450
     24 H112         0.0590     0.1140    -6.3360 h1         1 E09       0.086450
     25 H121        -2.2950     0.1860    -5.3030 h1         1 E09       0.086450
     26 H122        -1.7070     1.4960    -4.1700 h1         1 E09       0.086450
     27 H201        -2.7340    -1.6230     0.1980 h1         1 E09       0.030700
     28 H202        -2.3130    -1.7020     1.9000 h1         1 E09       0.030700
     29 H21         -3.8310    -0.0130     1.4370 ho         1 E09       0.441000
     30 H251        -0.7050    -1.4990     3.3140 hc         1 E09       0.051700
     31 H252         1.0160    -1.3210     3.4690 hc         1 E09       0.051700
     32 H261         0.7100     1.2070     3.5240 hc         1 E09       0.066200
     33 H262        -1.0260     0.9580     3.3950 hc         1 E09       0.066200
     34 H71         -0.9880    -0.3520     5.5200 h1         1 E09       0.013200
     35 H72          0.7530    -0.1130     5.6340 h1         1 E09       0.013200
     36 H311         3.3580    -0.9380     1.1970 h1         1 E09       0.065033
     37 H312         3.0370     0.8010     1.2860 h1         1 E09       0.065033
     38 H313         2.5590    -0.2560     2.6130 h1         1 E09       0.065033
     39 HO1         -0.4220     1.4960     6.8180 ho         1 E09       0.443000
@<TRIPOS>BOND
     1     1     2 1   
     2     1     5 2   
     3     1     9 1   
     4     2     3 1   
     5     2     7 2   
     6     3     4 2   
     7     3    12 1   
     8     4     6 1   
     9     4    14 1   
    10     5     6 1   
    11     5    22 1   
    12     6     8 2   
    13     9    10 1   
    14     9    11 1   
    15    10    11 1   
    16    10    23 1   
    17    10    24 1   
    18    11    25 1   
    19    11    26 1   
    20    12    13 2   
    21    12    15 1   
    22    13    14 1   
    23    13    17 1   
    24    14    20 1   
    25    15    16 1   
    26    15    27 1   
    27    15    28 1   
    28    16    29 1   
    29    17    18 1   
    30    17    30 1   
    31    17    31 1   
    32    18    19 1   
    33    18    32 1   
    34    18    33 1   
    35    19    21 1   
    36    19    34 1   
    37    19    35 1   
    38    20    36 1   
    39    20    37 1   
    40    20    38 1   
    41    21    39 1   
@<TRIPOS>SUBSTRUCTURE
     1 E09         1 TEMP              0 ****  ****    0 ROOT
