@<TRIPOS>MOLECULE
E0D
   43    45     1     0     0
SMALL
No Charge or Current Charge


@<TRIPOS>ATOM
      1 OAW         -5.9620    -0.5980    -1.5100 o          1 E0D      -0.728000
      2 CAV         -5.5810     0.4640    -1.0410 c          1 E0D       0.725000
      3 OAX         -6.0110     1.5530    -1.3910 o          1 E0D      -0.728000
      4 CAR         -4.4950     0.4340     0.0520 c6         1 E0D      -0.212700
      5 CAQ         -3.1750    -0.1630    -0.4920 c6         1 E0D       0.108000
      6 CAS         -4.9540    -0.3080     1.3260 c6         1 E0D      -0.056400
      7 CAT         -3.8400    -0.2330     2.3830 c6         1 E0D      -0.098400
      8 CAU         -2.5130    -0.8220     1.8540 c6         1 E0D       0.104000
      9 NAO         -2.0820    -0.2950     0.5210 n          1 E0D      -0.400800
     10 C           -0.7570    -0.5050     0.0680 c          1 E0D       0.577100
     11 O           -0.5070    -0.5380    -1.1330 o          1 E0D      -0.586100
     12 CA           0.3600    -0.6190     1.1270 c3         1 E0D      -0.026400
     13 N            1.7280    -0.4570     0.5980 na         1 E0D      -0.052700
     14 CAH          2.6640    -1.4770     0.3440 cc         1 E0D      -0.080100
     15 CAE          2.2690     0.7900     0.3090 ca         1 E0D      -0.046200
     16 CAF          1.6870     2.0650     0.4120 ca         1 E0D      -0.106000
     17 CAA          2.4680     3.1820     0.0470 ca         1 E0D      -0.103000
     18 CAB          3.7970     3.0090    -0.4080 ca         1 E0D      -0.138000
     19 CAC          4.3580     1.7170    -0.5040 ca         1 E0D      -0.061000
     20 CAD          3.5560     0.6260    -0.1340 ca         1 E0D      -0.046800
     21 CAG          3.7990    -0.8060    -0.1100 cd         1 E0D      -0.254400
     22 CAK          5.0630    -1.4950    -0.5060 c          1 E0D       0.618300
     23 OAM          6.0450    -0.8790    -0.9010 o          1 E0D      -0.561100
     24 CAL          5.1170    -3.0210    -0.4080 c3         1 E0D      -0.192100
     25 H2          -4.2940     1.4790     0.3300 hc         1 E0D       0.039700
     26 H3          -3.3750    -1.1600    -0.9110 h1         1 E0D       0.068700
     27 H4          -2.8290     0.4690    -1.3230 h1         1 E0D       0.068700
     28 H5          -5.8750     0.1450     1.7190 hc         1 E0D       0.047200
     29 H6          -5.1860    -1.3580     1.0980 hc         1 E0D       0.047200
     30 H7          -3.6820     0.8140     2.6770 hc         1 E0D       0.029200
     31 H8          -4.1470    -0.7680     3.2910 hc         1 E0D       0.029200
     32 H9          -1.7410    -0.6310     2.6100 h1         1 E0D       0.027700
     33 H10         -2.6190    -1.9130     1.7700 h1         1 E0D       0.027700
     34 H11          0.1890     0.1460     1.8920 h1         1 E0D       0.069700
     35 H12          0.2720    -1.6020     1.6050 h1         1 E0D       0.069700
     36 H13          2.4510    -2.5290     0.5020 h4         1 E0D       0.210000
     37 H14          0.6650     2.1970     0.7580 ha         1 E0D       0.118000
     38 H15          2.0460     4.1820     0.1150 ha         1 E0D       0.106000
     39 H16          4.3900     3.8760    -0.6860 ha         1 E0D       0.103000
     40 H17          5.3770     1.5830    -0.8540 ha         1 E0D       0.129000
     41 H18          4.2920    -3.4450    -0.9920 hc         1 E0D       0.051367
     42 H19          6.0840    -3.4320    -0.7200 hc         1 E0D       0.051367
     43 H20          4.8620    -3.3220     0.6140 hc         1 E0D       0.051367
@<TRIPOS>BOND
     1     1     2 1   
     2     2     3 1   
     3     2     4 1   
     4     4     5 1   
     5     4     6 1   
     6     4    25 1   
     7     5     9 1   
     8     5    26 1   
     9     5    27 1   
    10     6     7 1   
    11     6    28 1   
    12     6    29 1   
    13     7     8 1   
    14     7    30 1   
    15     7    31 1   
    16     8     9 1   
    17     8    32 1   
    18     8    33 1   
    19     9    10 1   
    20    10    11 2   
    21    10    12 1   
    22    12    13 1   
    23    12    34 1   
    24    12    35 1   
    25    13    14 1   
    26    13    15 1   
    27    14    21 2   
    28    14    36 1   
    29    15    16 ar  
    30    15    20 ar  
    31    16    17 ar  
    32    16    37 1   
    33    17    18 ar  
    34    17    38 1   
    35    18    19 ar  
    36    18    39 1   
    37    19    20 ar  
    38    19    40 1   
    39    20    21 1   
    40    21    22 1   
    41    22    23 2   
    42    22    24 1   
    43    24    41 1   
    44    24    42 1   
    45    24    43 1   
@<TRIPOS>SUBSTRUCTURE
     1 E0D         1 TEMP              0 ****  ****    0 ROOT
