@<TRIPOS>MOLECULE
E0D
   43    45     1     0     0
SMALL
bcc


@<TRIPOS>ATOM
      1 OAW         -5.0140    -0.3260    -2.3190 o          1 E0D      -0.833300
      2 CAV         -5.1880     0.3400    -1.2790 c          1 E0D       0.935600
      3 OAX         -6.1760     1.0550    -1.0180 o          1 E0D      -0.833300
      4 CAR         -4.0700     0.2990    -0.2170 c6         1 E0D      -0.212700
      5 CAQ         -3.0660    -0.8190    -0.4770 c6         1 E0D       0.108000
      6 CAS         -4.6240     0.1830     1.2030 c6         1 E0D      -0.056400
      7 CAT         -3.5030     0.1120     2.2330 c6         1 E0D      -0.098400
      8 CAU         -2.5180    -0.9980     1.8920 c6         1 E0D       0.104000
      9 NAO         -2.0190    -0.8290     0.5380 n          1 E0D      -0.467800
     10 C           -0.7370    -0.6230     0.2030 c          1 E0D       0.644100
     11 O           -0.3490    -0.4490    -0.9420 o          1 E0D      -0.586100
     12 CA           0.2870    -0.6300     1.3450 c3         1 E0D      -0.055700
     13 N            1.6060    -0.3870     0.8340 na         1 E0D      -0.023400
     14 CAH          2.4580    -1.3400     0.4080 cc         1 E0D      -0.030100
     15 CAE          2.1220     0.8520     0.5240 ca         1 E0D      -0.046200
     16 CAF          1.5850     2.1150     0.7520 ca         1 E0D      -0.124000
     17 CAA          2.3370     3.2030     0.3500 ca         1 E0D      -0.121000
     18 CAB          3.5880     3.0340    -0.2600 ca         1 E0D      -0.156000
     19 CAC          4.1120     1.7750    -0.4860 ca         1 E0D      -0.079000
     20 CAD          3.3710     0.6570    -0.0930 ca         1 E0D      -0.046800
     21 CAG          3.5750    -0.7680    -0.1620 cd         1 E0D      -0.254400
     22 CAK          4.7210    -1.4610    -0.7190 c          1 E0D       0.618300
     23 OAM          5.6370    -0.8460    -1.2440 o          1 E0D      -0.561100
     24 CAL          4.7810    -2.9650    -0.6130 c3         1 E0D      -0.192100
     25 H2          -3.5240     1.2520    -0.2840 hc         1 E0D       0.039700
     26 H3          -3.5720    -1.7910    -0.4520 h1         1 E0D       0.068700
     27 H4          -2.6090    -0.7180    -1.4560 h1         1 E0D       0.068700
     28 H5          -5.2850     1.0230     1.4160 hc         1 E0D       0.047200
     29 H6          -5.2370    -0.7230     1.2760 hc         1 E0D       0.047200
     30 H7          -2.9660     1.0650     2.2700 hc         1 E0D       0.029200
     31 H8          -3.9080    -0.0660     3.2320 hc         1 E0D       0.029200
     32 H9          -1.7050    -1.0210     2.6120 h1         1 E0D       0.027700
     33 H10         -3.0180    -1.9700     1.9550 h1         1 E0D       0.027700
     34 H11          0.0540     0.1240     2.0990 h1         1 E0D       0.069700
     35 H12          0.2860    -1.5920     1.8590 h1         1 E0D       0.069700
     36 H13          2.2100    -2.3810     0.5440 h4         1 E0D       0.160000
     37 H14          0.6200     2.2540     1.2220 ha         1 E0D       0.136000
     38 H15          1.9520     4.2010     0.5090 ha         1 E0D       0.124000
     39 H16          4.1510     3.9090    -0.5590 ha         1 E0D       0.121000
     40 H17          5.0760     1.6580    -0.9610 ha         1 E0D       0.147000
     41 H18          3.8220    -3.4360    -0.4130 hc         1 E0D       0.051367
     42 H19          5.1930    -3.3880    -1.5280 hc         1 E0D       0.051367
     43 H20          5.4560    -3.2340     0.2030 hc         1 E0D       0.051367
@<TRIPOS>BOND
     1     1     2 1   
     2     2     3 1   
     3     2     4 1   
     4     4     5 1   
     5     4     6 1   
     6     4    25 1   
     7     5     9 1   
     8     5    26 1   
     9     5    27 1   
    10     6     7 1   
    11     6    28 1   
    12     6    29 1   
    13     7     8 1   
    14     7    30 1   
    15     7    31 1   
    16     8     9 1   
    17     8    32 1   
    18     8    33 1   
    19     9    10 1   
    20    10    11 2   
    21    10    12 1   
    22    12    13 1   
    23    12    34 1   
    24    12    35 1   
    25    13    14 1   
    26    13    15 1   
    27    14    21 2   
    28    14    36 1   
    29    15    16 ar  
    30    15    20 ar  
    31    16    17 ar  
    32    16    37 1   
    33    17    18 ar  
    34    17    38 1   
    35    18    19 ar  
    36    18    39 1   
    37    19    20 ar  
    38    19    40 1   
    39    20    21 1   
    40    21    22 1   
    41    22    23 2   
    42    22    24 1   
    43    24    41 1   
    44    24    42 1   
    45    24    43 1   
@<TRIPOS>SUBSTRUCTURE
     1 E0D         1 TEMP              0 ****  ****    0 ROOT
