@<TRIPOS>MOLECULE
E0E
   70    71     1     0     0
SMALL
No Charge or Current Charge


@<TRIPOS>ATOM
      1 C5          -5.6100     4.1480     0.0760 c3         1 E0E      -0.091100
      2 C6          -4.4110     3.2620     0.4640 c3         1 E0E      -0.075400
      3 C7          -3.3630     3.1300    -0.6680 c3         1 E0E      -0.041200
      4 C8          -2.1700     2.2480    -0.3020 ce         1 E0E      -0.045400
      5 O9           7.3820    -1.9090     1.5400 oh         1 E0E      -0.660000
      6 C10          7.0830    -2.2710     0.1900 c3         1 E0E       0.184000
      7 C11          8.4110    -2.6850    -0.4840 c3         1 E0E      -0.100100
      8 C12          6.1090    -3.4740     0.2250 c3         1 E0E      -0.100100
      9 C13          6.4740    -1.0350    -0.5390 c3         1 E0E      -0.101400
     10 C14          5.1580    -0.4680     0.0550 c3         1 E0E      -0.070400
     11 C15          4.6580     0.7900    -0.6900 c3         1 E0E      -0.078400
     12 C16          3.3430     1.3540    -0.1090 c3         1 E0E      -0.073400
     13 C18          1.5400     3.1430    -0.2650 ca         1 E0E      -0.078300
     14 C19          0.3210     2.4930    -0.5390 ca         1 E0E      -0.101000
     15 C20          1.5450     4.2840     0.5590 ca         1 E0E      -0.104000
     16 C21          0.3430     4.7680     1.0990 ca         1 E0E      -0.111000
     17 C22         -0.8700     4.1140     0.8220 ca         1 E0E      -0.102000
     18 C23         -0.8930     2.9670     0.0010 ca         1 E0E      -0.047800
     19 C24         -2.2540     0.8830    -0.3010 cf         1 E0E      -0.175000
     20 C25         -3.4240     0.0620    -0.6210 cf         1 E0E      -0.173000
     21 C26         -3.4610    -1.3030    -0.6620 ce         1 E0E      -0.057200
     22 C27         -2.3090    -2.2020    -0.4580 ce         1 E0E      -0.127200
     23 C28         -1.1410    -2.0730    -1.1270 c2         1 E0E      -0.295000
     24 C29         -2.5460    -3.3480     0.5360 c6         1 E0E       0.212500
     25 O30         -2.5840    -2.8160     1.8610 oh         1 E0E      -0.656000
     26 C31         -3.8590    -4.1020     0.2090 c6         1 E0E      -0.066400
     27 C32         -5.0610    -3.1370     0.0630 c6         1 E0E       0.176300
     28 O33         -6.2330    -3.8730    -0.3090 oh         1 E0E      -0.661000
     29 C34         -4.7600    -2.0470    -0.9960 c6         1 E0E      -0.075200
     30 H1          -5.2790     5.1640    -0.1710 hc         1 E0E       0.032367
     31 H2          -6.1340     3.7330    -0.7940 hc         1 E0E       0.032367
     32 H3          -6.3230     4.2120     0.9070 hc         1 E0E       0.032367
     33 H4          -3.9370     3.6800     1.3590 hc         1 E0E       0.042700
     34 H5          -4.7810     2.2690     0.7450 hc         1 E0E       0.042700
     35 H6          -3.8550     2.7400    -1.5670 hc         1 E0E       0.047200
     36 H7          -3.0210     4.1350    -0.9470 hc         1 E0E       0.047200
     37 H8           7.9390    -1.1030     1.5000 ho         1 E0E       0.438000
     38 H9           9.1270    -1.8540    -0.4930 hc         1 E0E       0.041200
     39 H10          8.8750    -3.5270     0.0450 hc         1 E0E       0.041200
     40 H11          8.2380    -2.9940    -1.5230 hc         1 E0E       0.041200
     41 H12          5.7930    -3.7470    -0.7890 hc         1 E0E       0.041200
     42 H13          6.5880    -4.3500     0.6780 hc         1 E0E       0.041200
     43 H14          5.2130    -3.2470     0.8140 hc         1 E0E       0.041200
     44 H15          7.2210    -0.2310    -0.5560 hc         1 E0E       0.039200
     45 H16          6.2930    -1.3030    -1.5880 hc         1 E0E       0.039200
     46 H17          4.3730    -1.2330     0.0120 hc         1 E0E       0.046200
     47 H18          5.3060    -0.2190     1.1130 hc         1 E0E       0.046200
     48 H19          5.4330     1.5660    -0.6470 hc         1 E0E       0.035200
     49 H20          4.5080     0.5450    -1.7490 hc         1 E0E       0.035200
     50 H21          2.5700     0.5770    -0.1480 hc         1 E0E       0.043200
     51 H22          3.4920     1.6030     0.9490 hc         1 E0E       0.043200
     52 H23          3.6170     3.3810    -0.8250 hc         1 E0E       0.045700
     53 H24          2.6910     2.3630    -1.9130 hc         1 E0E       0.045700
     54 H25          0.3190     1.6160    -1.1820 ha         1 E0E       0.111000
     55 H26          2.4790     4.7950     0.7820 ha         1 E0E       0.111000
     56 H27          0.3500     5.6490     1.7360 ha         1 E0E       0.113000
     57 H28         -1.7870     4.5000     1.2570 ha         1 E0E       0.115000
     58 H29         -1.3520     0.3400    -0.0210 ha         1 E0E       0.176000
     59 H30         -4.3540     0.5890    -0.8320 ha         1 E0E       0.174000
     60 H31         -0.9860    -1.2780    -1.8570 ha         1 E0E       0.168500
     61 H32         -0.3090    -2.7620    -0.9760 ha         1 E0E       0.168500
     62 H33         -1.7160    -4.0670     0.4570 h1         1 E0E       0.037700
     63 H34         -1.8930    -2.1200     1.8840 ho         1 E0E       0.445000
     64 H35         -3.7230    -4.6610    -0.7270 hc         1 E0E       0.063200
     65 H36         -4.0650    -4.8480     0.9880 hc         1 E0E       0.063200
     66 H37         -5.2240    -2.6410     1.0320 h1         1 E0E       0.050700
     67 H38         -6.9780    -3.2320    -0.3140 ho         1 E0E       0.442000
     68 H39         -5.6040    -1.3470    -1.0550 hc         1 E0E       0.052700
     69 H40         -4.6660    -2.5050    -1.9900 hc         1 E0E       0.052700
     70 C17          2.8390     2.6090    -0.8540 c3         1 E0E      -0.031100
@<TRIPOS>BOND
     1     1     2 1   
     2     1    30 1   
     3     1    31 1   
     4     1    32 1   
     5     2     3 1   
     6     2    33 1   
     7     2    34 1   
     8     3     4 1   
     9     3    35 1   
    10     3    36 1   
    11     4    18 1   
    12     4    19 2   
    13     5     6 1   
    14     5    37 1   
    15     6     7 1   
    16     6     8 1   
    17     6     9 1   
    18     7    38 1   
    19     7    39 1   
    20     7    40 1   
    21     8    41 1   
    22     8    42 1   
    23     8    43 1   
    24     9    10 1   
    25     9    44 1   
    26     9    45 1   
    27    10    11 1   
    28    10    46 1   
    29    10    47 1   
    30    11    12 1   
    31    11    48 1   
    32    11    49 1   
    33    12    50 1   
    34    12    51 1   
    35    12    70 1   
    36    13    14 ar  
    37    13    15 ar  
    38    13    70 1   
    39    14    18 ar  
    40    14    54 1   
    41    15    16 ar  
    42    15    55 1   
    43    16    17 ar  
    44    16    56 1   
    45    17    18 ar  
    46    17    57 1   
    47    19    20 1   
    48    19    58 1   
    49    20    21 2   
    50    20    59 1   
    51    21    22 1   
    52    21    29 1   
    53    22    23 2   
    54    22    24 1   
    55    23    60 1   
    56    23    61 1   
    57    24    25 1   
    58    24    26 1   
    59    24    62 1   
    60    25    63 1   
    61    26    27 1   
    62    26    64 1   
    63    26    65 1   
    64    27    28 1   
    65    27    29 1   
    66    27    66 1   
    67    28    67 1   
    68    29    68 1   
    69    29    69 1   
    70    52    70 1   
    71    53    70 1   
@<TRIPOS>SUBSTRUCTURE
     1 E0E         1 TEMP              0 ****  ****    0 ROOT
