@<TRIPOS>MOLECULE
E0E
   70    71     1     0     0
SMALL
bcc


@<TRIPOS>ATOM
      1 C5          -5.5340     3.9930     0.5350 c3         1 E0E      -0.091100
      2 C6          -4.2780     3.1550     0.7220 c3         1 E0E      -0.075400
      3 C7          -3.4280     3.0960    -0.5520 c3         1 E0E      -0.041200
      4 C8          -2.1850     2.2510    -0.4200 ce         1 E0E      -0.045400
      5 O9           7.2550    -1.8550     1.7160 oh         1 E0E      -0.597800
      6 C10          7.0070    -2.2200     0.3620 c3         1 E0E       0.160800
      7 C11          8.3150    -2.6470    -0.3060 c3         1 E0E      -0.100100
      8 C12          6.0480    -3.4030     0.4170 c3         1 E0E      -0.100100
      9 C13          6.4030    -1.0400    -0.4140 c3         1 E0E      -0.101400
     10 C14          5.1060    -0.4710     0.1450 c3         1 E0E      -0.070400
     11 C15          4.6060     0.7210    -0.6640 c3         1 E0E      -0.078400
     12 C16          3.3090     1.3090    -0.1240 c3         1 E0E      -0.073400
     13 C18          1.5200     3.0580    -0.4360 ca         1 E0E      -0.078300
     14 C19          0.2990     2.4340    -0.6700 ca         1 E0E      -0.119000
     15 C20          1.5380     4.2230     0.3270 ca         1 E0E      -0.122000
     16 C21          0.3540     4.7520     0.8250 ca         1 E0E      -0.129000
     17 C22         -0.8550     4.1230     0.5750 ca         1 E0E      -0.120000
     18 C23         -0.9030     2.9380    -0.1660 ca         1 E0E      -0.047800
     19 C24         -2.2190     0.9040    -0.5000 cf         1 E0E      -0.125000
     20 C25         -3.4050     0.1120    -0.7400 cf         1 E0E      -0.123000
     21 C26         -3.4600    -1.2290    -0.8340 ce         1 E0E      -0.057200
     22 C27         -2.2960    -2.1300    -0.7540 ce         1 E0E      -0.127200
     23 C28         -1.2190    -2.0300    -1.5320 c2         1 E0E      -0.195000
     24 C29         -2.4300    -3.2330     0.2710 c6         1 E0E       0.189300
     25 O30         -2.4100    -2.6910     1.5780 oh         1 E0E      -0.593800
     26 C31         -3.7520    -3.9690     0.0980 c6         1 E0E      -0.066400
     27 C32         -4.9410    -3.0200     0.0970 c6         1 E0E       0.153100
     28 O33         -6.1040    -3.7930    -0.1120 oh         1 E0E      -0.598800
     29 C34         -4.7690    -1.9530    -0.9890 c6         1 E0E      -0.075200
     30 H1          -5.2880     5.0220     0.2670 hc         1 E0E       0.032367
     31 H2          -6.1650     3.5870    -0.2580 hc         1 E0E       0.032367
     32 H3          -6.1290     4.0230     1.4480 hc         1 E0E       0.032367
     33 H4          -3.6860     3.5620     1.5460 hc         1 E0E       0.042700
     34 H5          -4.5520     2.1400     1.0200 hc         1 E0E       0.042700
     35 H6          -4.0460     2.7110    -1.3670 hc         1 E0E       0.047200
     36 H7          -3.1550     4.1120    -0.8470 hc         1 E0E       0.047200
     37 H8           7.8480    -1.0950     1.7180 ho         1 E0E       0.399000
     38 H9           9.0350    -1.8250    -0.3200 hc         1 E0E       0.041200
     39 H10          8.7680    -3.4850     0.2260 hc         1 E0E       0.041200
     40 H11          8.1500    -2.9550    -1.3390 hc         1 E0E       0.041200
     41 H12          5.7740    -3.7200    -0.5890 hc         1 E0E       0.041200
     42 H13          6.5070    -4.2540     0.9230 hc         1 E0E       0.041200
     43 H14          5.1280    -3.1540     0.9490 hc         1 E0E       0.041200
     44 H15          7.1530    -0.2400    -0.4610 hc         1 E0E       0.039200
     45 H16          6.2420    -1.3550    -1.4500 hc         1 E0E       0.039200
     46 H17          4.3280    -1.2400     0.1520 hc         1 E0E       0.046200
     47 H18          5.2490    -0.1690     1.1860 hc         1 E0E       0.046200
     48 H19          5.3750     1.5000    -0.6830 hc         1 E0E       0.035200
     49 H20          4.4580     0.4150    -1.7060 hc         1 E0E       0.035200
     50 H21          2.5430     0.5280    -0.0750 hc         1 E0E       0.043200
     51 H22          3.4600     1.6560     0.9030 hc         1 E0E       0.043200
     52 H23          3.5600     3.2440    -1.0390 hc         1 E0E       0.045700
     53 H24          2.6290     2.1130    -2.0000 hc         1 E0E       0.045700
     54 H25          0.2800     1.5470    -1.2940 ha         1 E0E       0.129000
     55 H26          2.4780     4.7270     0.5170 ha         1 E0E       0.129000
     56 H27          0.3740     5.6620     1.4100 ha         1 E0E       0.131000
     57 H28         -1.7640     4.5550     0.9740 ha         1 E0E       0.133000
     58 H29         -1.2990     0.3530    -0.3430 ha         1 E0E       0.126000
     59 H30         -4.3480     0.6430    -0.8190 ha         1 E0E       0.124000
     60 H31         -1.1250    -1.2590    -2.2870 ha         1 E0E       0.118500
     61 H32         -0.3990    -2.7330    -1.4480 ha         1 E0E       0.118500
     62 H33         -1.6070    -3.9470     0.1340 h1         1 E0E       0.037700
     63 H34         -1.6060    -2.1710     1.6740 ho         1 E0E       0.406000
     64 H35         -3.7220    -4.5150    -0.8500 hc         1 E0E       0.063200
     65 H36         -3.8610    -4.7140     0.8920 hc         1 E0E       0.063200
     66 H37         -4.9890    -2.5120     1.0690 h1         1 E0E       0.050700
     67 H38         -6.8690    -3.2160    -0.0180 ho         1 E0E       0.403000
     68 H39         -5.6010    -1.2450    -0.9570 hc         1 E0E       0.052700
     69 H40         -4.7980    -2.4530    -1.9650 hc         1 E0E       0.052700
     70 C17          2.7920     2.4680    -0.9780 c3         1 E0E      -0.031100
@<TRIPOS>BOND
     1     1     2 1   
     2     1    30 1   
     3     1    31 1   
     4     1    32 1   
     5     2     3 1   
     6     2    33 1   
     7     2    34 1   
     8     3     4 1   
     9     3    35 1   
    10     3    36 1   
    11     4    18 1   
    12     4    19 2   
    13     5     6 1   
    14     5    37 1   
    15     6     7 1   
    16     6     8 1   
    17     6     9 1   
    18     7    38 1   
    19     7    39 1   
    20     7    40 1   
    21     8    41 1   
    22     8    42 1   
    23     8    43 1   
    24     9    10 1   
    25     9    44 1   
    26     9    45 1   
    27    10    11 1   
    28    10    46 1   
    29    10    47 1   
    30    11    12 1   
    31    11    48 1   
    32    11    49 1   
    33    12    50 1   
    34    12    51 1   
    35    12    70 1   
    36    13    14 ar  
    37    13    15 ar  
    38    13    70 1   
    39    14    18 ar  
    40    14    54 1   
    41    15    16 ar  
    42    15    55 1   
    43    16    17 ar  
    44    16    56 1   
    45    17    18 ar  
    46    17    57 1   
    47    19    20 1   
    48    19    58 1   
    49    20    21 2   
    50    20    59 1   
    51    21    22 1   
    52    21    29 1   
    53    22    23 2   
    54    22    24 1   
    55    23    60 1   
    56    23    61 1   
    57    24    25 1   
    58    24    26 1   
    59    24    62 1   
    60    25    63 1   
    61    26    27 1   
    62    26    64 1   
    63    26    65 1   
    64    27    28 1   
    65    27    29 1   
    66    27    66 1   
    67    28    67 1   
    68    29    68 1   
    69    29    69 1   
    70    52    70 1   
    71    53    70 1   
@<TRIPOS>SUBSTRUCTURE
     1 E0E         1 TEMP              0 ****  ****    0 ROOT
