@<TRIPOS>MOLECULE
E0F
   56    59     1     0     0
SMALL
No Charge or Current Charge


@<TRIPOS>ATOM
      1 C12         -7.3420    14.7150     0.9410 c          1 E0F       0.635300
      2 C7          -5.4570    16.1600     0.2620 cc         1 E0F      -0.019200
      3 C6          -3.5900    17.6480    -0.4620 ca         1 E0F      -0.038000
      4 C9          -6.0900    16.1890     2.7010 c          1 E0F       0.576200
      5 C8          -6.2780    15.7050     1.2970 cd         1 E0F      -0.272400
      6 C5          -2.6060    18.6100    -0.1670 ca         1 E0F      -0.148000
      7 C4          -2.4520    19.0830     1.1470 ca         1 E0F      -0.048000
      8 C3          -3.2850    18.5920     2.1670 ca         1 E0F      -0.169000
      9 C1          -4.4250    17.1550     0.5600 ca         1 E0F      -0.148800
     10 C2          -4.2640    17.6330     1.8660 ca         1 E0F       0.104600
     11 O14         -7.4290    14.2370    -0.1860 o          1 E0F      -0.604100
     12 N10         -5.1020    17.1210     2.8550 ns         1 E0F      -0.362100
     13 N13         -8.2430    14.4070     1.9450 ns         1 E0F      -0.156000
     14 C15         -9.3630    13.5320     1.9830 ca         1 E0F      -0.013000
     15 C20        -10.4000    13.7910     2.9140 ca         1 E0F      -0.094300
     16 C19        -11.5180    12.9330     2.9680 ca         1 E0F      -0.102000
     17 C18        -11.6070    11.8230     2.1140 ca         1 E0F      -0.117000
     18 C17        -10.5770    11.5590     1.1990 ca         1 E0F      -0.103000
     19 C16         -9.4590    12.4070     1.1340 ca         1 E0F      -0.098000
     20 C21        -10.3370    15.0000     3.8540 c3         1 E0F       0.227100
     21 N22        -10.2830    16.3000     3.1370 n3         1 E0F      -0.737600
     22 C24        -11.5140    16.5790     2.3530 c3         1 E0F       0.166100
     23 C23         -9.7780    17.4250     3.9810 c6         1 E0F       0.194500
     24 C29         -9.3120    18.6390     3.1280 c6         1 E0F      -0.090900
     25 C28         -8.6790    19.7340     4.0210 c6         1 E0F      -0.072400
     26 C27         -9.6670    20.1910     5.1230 c6         1 E0F      -0.076400
     27 C26        -10.1620    18.9920     5.9700 c6         1 E0F      -0.072400
     28 C25        -10.7840    17.8880     5.0770 c6         1 E0F      -0.090900
     29 H1          -5.5910    15.7990    -0.7570 ha         1 E0F       0.218000
     30 H2          -3.7010    17.2900    -1.4840 ha         1 E0F       0.125000
     31 H3          -1.9640    18.9880    -0.9590 ha         1 E0F       0.124000
     32 H4          -1.6910    19.8270     1.3740 ha         1 E0F       0.119000
     33 H5          -3.1660    18.9570     3.1850 ha         1 E0F       0.123000
     34 H6          -4.9590    17.4560     3.7980 hn         1 E0F       0.331500
     35 H7          -8.1110    14.9410     2.7950 hn         1 E0F       0.191000
     36 H8         -12.3220    13.1290     3.6740 ha         1 E0F       0.109000
     37 H9         -12.4720    11.1660     2.1640 ha         1 E0F       0.112000
     38 H10        -10.6420    10.6940     0.5420 ha         1 E0F       0.113000
     39 H11         -8.6680    12.1710     0.4290 ha         1 E0F       0.124000
     40 H12         -9.4430    14.8810     4.4810 h1         1 E0F       0.038200
     41 H13        -11.2000    14.9800     4.5320 h1         1 E0F       0.038200
     42 H15        -11.7350    15.7500     1.6690 h1         1 E0F       0.029700
     43 H16        -12.3820    16.7090     3.0140 h1         1 E0F       0.029700
     44 H17        -11.4070    17.4820     1.7410 h1         1 E0F       0.029700
     45 H18         -8.8820    17.0700     4.5110 h1         1 E0F       0.051700
     46 H19        -10.1550    19.0740     2.5770 hc         1 E0F       0.044950
     47 H20         -8.5810    18.3070     2.3780 hc         1 E0F       0.044950
     48 H21         -7.7590    19.3500     4.4830 hc         1 E0F       0.037200
     49 H22         -8.3840    20.5940     3.4050 hc         1 E0F       0.037200
     50 H23         -9.1830    20.9320     5.7740 hc         1 E0F       0.037700
     51 H24        -10.5270    20.6970     4.6620 hc         1 E0F       0.037700
     52 H25         -9.3230    18.5740     6.5430 hc         1 E0F       0.037200
     53 H26        -10.9010    19.3350     6.7060 hc         1 E0F       0.037200
     54 H27        -11.7020    18.2730     4.6140 hc         1 E0F       0.044950
     55 H28        -11.0800    17.0390     5.7070 hc         1 E0F       0.044950
     56 O11         -6.7140    15.8100     3.6770 o          1 E0F      -0.582000
@<TRIPOS>BOND
     1     1     5 1   
     2     1    11 2   
     3     1    13 1   
     4     2     5 2   
     5     2     9 1   
     6     2    29 1   
     7     3     6 ar  
     8     3     9 ar  
     9     3    30 1   
    10     4     5 1   
    11     4    12 1   
    12     4    56 2   
    13     6     7 ar  
    14     6    31 1   
    15     7     8 ar  
    16     7    32 1   
    17     8    10 ar  
    18     8    33 1   
    19     9    10 ar  
    20    10    12 1   
    21    12    34 1   
    22    13    14 1   
    23    13    35 1   
    24    14    15 ar  
    25    14    19 ar  
    26    15    16 ar  
    27    15    20 1   
    28    16    17 ar  
    29    16    36 1   
    30    17    18 ar  
    31    17    37 1   
    32    18    19 ar  
    33    18    38 1   
    34    19    39 1   
    35    20    21 1   
    36    20    40 1   
    37    20    41 1   
    38    21    22 1   
    39    21    23 1   
    40    22    42 1   
    41    22    43 1   
    42    22    44 1   
    43    23    24 1   
    44    23    28 1   
    45    23    45 1   
    46    24    25 1   
    47    24    46 1   
    48    24    47 1   
    49    25    26 1   
    50    25    48 1   
    51    25    49 1   
    52    26    27 1   
    53    26    50 1   
    54    26    51 1   
    55    27    28 1   
    56    27    52 1   
    57    27    53 1   
    58    28    54 1   
    59    28    55 1   
@<TRIPOS>SUBSTRUCTURE
     1 E0F         1 TEMP              0 ****  ****    0 ROOT
