@<TRIPOS>MOLECULE
E0F
   56    59     1     0     0
SMALL
bcc


@<TRIPOS>ATOM
      1 C12         -7.6800    14.9110     1.4450 c          1 E0F       0.702300
      2 C7          -6.0470    16.6340     0.8770 cc         1 E0F       0.030800
      3 C6          -4.4770    18.4120     0.1440 ca         1 E0F      -0.056000
      4 C9          -6.0120    15.8800     3.1910 c          1 E0F       0.718700
      5 C8          -6.5530    15.8190     1.8360 cd         1 E0F      -0.272400
      6 C5          -3.4670    19.2920     0.4510 ca         1 E0F      -0.166000
      7 C4          -2.9610    19.3410     1.7560 ca         1 E0F      -0.066000
      8 C3          -3.4590    18.5210     2.7450 ca         1 E0F      -0.187000
      9 C1          -5.0020    17.5630     1.1310 ca         1 E0F      -0.148800
     10 C2          -4.4850    17.6250     2.4330 ca         1 E0F       0.104600
     11 O14         -8.1110    14.9180     0.3020 o          1 E0F      -0.604100
     12 N10         -5.0130    16.7910     3.3800 ns         1 E0F      -0.429100
     13 N13         -8.1600    14.1090     2.4120 ns         1 E0F      -0.482100
     14 C15         -9.3460    13.3570     2.2590 ca         1 E0F       0.079600
     15 C20        -10.4950    13.7550     2.9500 ca         1 E0F      -0.094300
     16 C19        -11.6420    12.9800     2.8290 ca         1 E0F      -0.120000
     17 C18        -11.6640    11.8470     2.0240 ca         1 E0F      -0.135000
     18 C17        -10.5210    11.4720     1.3340 ca         1 E0F      -0.121000
     19 C16         -9.3600    12.2250     1.4580 ca         1 E0F      -0.116000
     20 C21        -10.4850    15.0220     3.7670 c3         1 E0F       0.227100
     21 N22        -10.3730    16.1840     2.9060 n3         1 E0F      -0.737600
     22 C24        -11.6430    16.5380     2.3160 c3         1 E0F       0.166100
     23 C23         -9.6120    17.2810     3.4880 c6         1 E0F       0.194500
     24 C29         -9.2220    18.3260     2.4440 c6         1 E0F      -0.090900
     25 C28         -8.2570    19.3470     3.0400 c6         1 E0F      -0.072400
     26 C27         -8.8670    20.0260     4.2630 c6         1 E0F      -0.076400
     27 C26         -9.3060    19.0000     5.3010 c6         1 E0F      -0.072400
     28 C25        -10.2550    17.9650     4.6990 c6         1 E0F      -0.090900
     29 H1          -6.4550    16.5840    -0.1250 ha         1 E0F       0.168000
     30 H2          -4.8800    18.3600    -0.8600 ha         1 E0F       0.143000
     31 H3          -3.0630    19.9470    -0.3090 ha         1 E0F       0.142000
     32 H4          -2.1660    20.0340     1.9950 ha         1 E0F       0.137000
     33 H5          -3.0640    18.5650     3.7530 ha         1 E0F       0.141000
     34 H6          -4.6380    16.8420     4.3190 hn         1 E0F       0.331500
     35 H7          -7.7680    14.2330     3.3410 hn         1 E0F       0.357500
     36 H8         -12.5370    13.2780     3.3630 ha         1 E0F       0.127000
     37 H9         -12.5700    11.2620     1.9370 ha         1 E0F       0.130000
     38 H10        -10.5260    10.5910     0.7060 ha         1 E0F       0.131000
     39 H11         -8.4580    11.9240     0.9420 ha         1 E0F       0.142000
     40 H12         -9.6310    15.0080     4.4490 h1         1 E0F       0.038200
     41 H13        -11.3800    15.0450     4.4070 h1         1 E0F       0.038200
     42 H15        -12.0710    15.6670     1.8170 h1         1 E0F       0.029700
     43 H16        -12.3890    16.8990     3.0400 h1         1 E0F       0.029700
     44 H17        -11.5160    17.3060     1.5540 h1         1 E0F       0.029700
     45 H18         -8.6720    16.8290     3.8340 h1         1 E0F       0.051700
     46 H19        -10.1090    18.8560     2.0830 hc         1 E0F       0.044950
     47 H20         -8.7750    17.8250     1.5820 hc         1 E0F       0.044950
     48 H21         -7.3270    18.8430     3.3290 hc         1 E0F       0.037200
     49 H22         -7.9880    20.0910     2.2880 hc         1 E0F       0.037200
     50 H23         -8.1560    20.7290     4.7040 hc         1 E0F       0.037700
     51 H24         -9.7350    20.6150     3.9490 hc         1 E0F       0.037700
     52 H25         -8.4230    18.4860     5.6960 hc         1 E0F       0.037200
     53 H26         -9.7810    19.4970     6.1510 hc         1 E0F       0.037200
     54 H27        -11.1850    18.4570     4.3950 hc         1 E0F       0.044950
     55 H28        -10.5210    17.2230     5.4570 hc         1 E0F       0.044950
     56 O11         -6.3900    15.1910     4.1400 o          1 E0F      -0.657500
@<TRIPOS>BOND
     1     1     5 1   
     2     1    11 2   
     3     1    13 1   
     4     2     5 2   
     5     2     9 1   
     6     2    29 1   
     7     3     6 ar  
     8     3     9 ar  
     9     3    30 1   
    10     4     5 1   
    11     4    12 1   
    12     4    56 2   
    13     6     7 ar  
    14     6    31 1   
    15     7     8 ar  
    16     7    32 1   
    17     8    10 ar  
    18     8    33 1   
    19     9    10 ar  
    20    10    12 1   
    21    12    34 1   
    22    13    14 1   
    23    13    35 1   
    24    14    15 ar  
    25    14    19 ar  
    26    15    16 ar  
    27    15    20 1   
    28    16    17 ar  
    29    16    36 1   
    30    17    18 ar  
    31    17    37 1   
    32    18    19 ar  
    33    18    38 1   
    34    19    39 1   
    35    20    21 1   
    36    20    40 1   
    37    20    41 1   
    38    21    22 1   
    39    21    23 1   
    40    22    42 1   
    41    22    43 1   
    42    22    44 1   
    43    23    24 1   
    44    23    28 1   
    45    23    45 1   
    46    24    25 1   
    47    24    46 1   
    48    24    47 1   
    49    25    26 1   
    50    25    48 1   
    51    25    49 1   
    52    26    27 1   
    53    26    50 1   
    54    26    51 1   
    55    27    28 1   
    56    27    52 1   
    57    27    53 1   
    58    28    54 1   
    59    28    55 1   
@<TRIPOS>SUBSTRUCTURE
     1 E0F         1 TEMP              0 ****  ****    0 ROOT
