@<TRIPOS>MOLECULE
E0G
   60    63     1     0     0
SMALL
bcc


@<TRIPOS>ATOM
      1 C8           3.6730    -0.5560    -0.5640 c6         1 E0G       0.237500
      2 C5           2.4030     1.4110     0.2670 ca         1 E0G       0.280600
      3 C6           2.3690     2.7730     0.6830 ca         1 E0G      -0.258600
      4 N1           3.6000     4.6430     1.5790 nt         1 E0G      -0.661000
      5 C2          -0.0490     2.6590     0.9580 ca         1 E0G      -0.223000
      6 O2           4.6270     3.2860     0.1190 o          1 E0G      -0.642100
      7 N2           3.5540     0.8040    -0.0890 nu         1 E0G      -0.768600
      8 N3          -1.1890     0.5550     0.5580 na         1 E0G       0.187300
      9 C3           0.0010     1.3220     0.5860 ca         1 E0G       0.077800
     10 C4           1.1850     0.7030     0.2460 ca         1 E0G      -0.223000
     11 N4          -1.1760    -0.6920     1.0450 nc         1 E0G      -0.461800
     12 C10          3.8180    -3.0010     0.0360 c6         1 E0G      -0.091900
     13 C11          5.1030    -3.1350    -0.7660 c6         1 E0G       0.146100
     14 C12          5.1350    -2.1110    -1.8950 c6         1 E0G      -0.091900
     15 C13          4.9600    -0.6900    -1.3710 c6         1 E0G      -0.091400
     16 C14         -2.3860    -1.1510     0.8670 cd         1 E0G       0.259600
     17 C15         -3.2160    -0.1900     0.2530 cd         1 E0G      -0.328900
     18 C16         -2.3940     0.9020     0.0640 cc         1 E0G      -0.020600
     19 C19         -5.0770     1.1230    -0.7500 c6         1 E0G      -0.172400
     20 C1           1.1430     3.3570     0.9930 ca         1 E0G      -0.037000
     21 F1          -1.6980    -3.1310     1.8930 f          1 E0G      -0.222633
     22 F2          -3.7410    -2.5220     2.1900 f          1 E0G      -0.222633
     23 F3          -3.1130    -3.2950     0.2810 f          1 E0G      -0.222633
     24 O3           5.1840    -4.4600    -1.2500 oh         1 E0G      -0.593800
     25 C7           3.6190     3.5760     0.7660 c          1 E0G       0.698700
     26 C9           3.6560    -1.5820     0.5710 c6         1 E0G      -0.091400
     27 C17         -2.7920     2.1670    -0.5990 c6         1 E0G      -0.017100
     28 C18         -4.0060     1.9200    -1.5140 c6         1 E0G      -0.033000
     29 C20         -4.6040    -0.1970    -0.1880 c          1 E0G       0.618700
     30 C22         -4.5900     3.2670    -1.9290 c3         1 E0G      -0.089600
     31 C23         -2.7350    -2.5300     1.3100 c3         1 E0G       0.661600
     32 H1           2.8380    -0.7710    -1.2440 h1         1 E0G       0.054700
     33 H2           4.4370     5.1920     1.6840 hn         1 E0G       0.316000
     34 H3           2.8670     4.8060     2.2470 hn         1 E0G       0.316000
     35 H4          -0.9740     3.1380     1.2430 ha         1 E0G       0.145000
     36 H5           4.3620     1.4060    -0.1520 hn         1 E0G       0.475800
     37 H6           1.1630    -0.3350    -0.0510 ha         1 E0G       0.163000
     38 H7           2.9650    -3.2570    -0.6030 hc         1 E0G       0.054450
     39 H8           3.8170    -3.7120     0.8660 hc         1 E0G       0.054450
     40 H9           5.9460    -2.9230    -0.0890 h1         1 E0G       0.028700
     41 H10          6.0780    -2.1850    -2.4440 hc         1 E0G       0.054450
     42 H11          4.3340    -2.3390    -2.6070 hc         1 E0G       0.054450
     43 H12          4.9500     0.0140    -2.2060 hc         1 E0G       0.053700
     44 H13          5.8120    -0.4180    -0.7370 hc         1 E0G       0.053700
     45 H14         -5.4250     1.7160     0.1060 hc         1 E0G       0.072700
     46 H15         -5.9490     0.9510    -1.3850 hc         1 E0G       0.072700
     47 H16         -3.1060     0.1960    -2.5400 hc         1 E0G       0.040867
     48 H17         -4.4280     0.9610    -3.4150 hc         1 E0G       0.040867
     49 H18         -2.8500     1.7420    -3.3420 hc         1 E0G       0.040867
     50 H19          1.1010     4.4020     1.2680 ha         1 E0G       0.130000
     51 H20          6.0020    -4.5460    -1.7500 ho         1 E0G       0.403000
     52 H21          4.4710    -1.3510     1.2640 hc         1 E0G       0.053700
     53 H22          2.7310    -1.5080     1.1480 hc         1 E0G       0.053700
     54 H23         -3.0500     2.9080     0.1660 hc         1 E0G       0.067700
     55 H24         -1.9630     2.5910    -1.1720 hc         1 E0G       0.067700
     56 H25         -5.4320     3.1300    -2.6090 hc         1 E0G       0.040867
     57 H26         -4.9440     3.8330    -1.0660 hc         1 E0G       0.040867
     58 H27         -3.8420     3.8730    -2.4460 hc         1 E0G       0.040867
     59 C21         -3.5710     1.1570    -2.7680 c3         1 E0G      -0.089600
     60 O1          -5.3240    -1.1690    -0.0820 o          1 E0G      -0.508100
@<TRIPOS>BOND
     1     1     7 1   
     2     1    15 1   
     3     1    26 1   
     4     1    32 1   
     5     2     3 ar  
     6     2     7 1   
     7     2    10 ar  
     8     3    20 ar  
     9     3    25 1   
    10     4    25 1   
    11     4    33 1   
    12     4    34 1   
    13     5     9 ar  
    14     5    20 ar  
    15     5    35 1   
    16     6    25 2   
    17     7    36 1   
    18     8     9 1   
    19     8    11 1   
    20     8    18 1   
    21     9    10 ar  
    22    10    37 1   
    23    11    16 2   
    24    12    13 1   
    25    12    26 1   
    26    12    38 1   
    27    12    39 1   
    28    13    14 1   
    29    13    24 1   
    30    13    40 1   
    31    14    15 1   
    32    14    41 1   
    33    14    42 1   
    34    15    43 1   
    35    15    44 1   
    36    16    17 1   
    37    16    31 1   
    38    17    18 2   
    39    17    29 1   
    40    18    27 1   
    41    19    28 1   
    42    19    29 1   
    43    19    45 1   
    44    19    46 1   
    45    20    50 1   
    46    21    31 1   
    47    22    31 1   
    48    23    31 1   
    49    24    51 1   
    50    26    52 1   
    51    26    53 1   
    52    27    28 1   
    53    27    54 1   
    54    27    55 1   
    55    28    30 1   
    56    28    59 1   
    57    29    60 2   
    58    30    56 1   
    59    30    57 1   
    60    30    58 1   
    61    47    59 1   
    62    48    59 1   
    63    49    59 1   
@<TRIPOS>SUBSTRUCTURE
     1 E0G         1 TEMP              0 ****  ****    0 ROOT
