@<TRIPOS>MOLECULE
E0G
   60    63     1     0     0
SMALL
No Charge or Current Charge


@<TRIPOS>ATOM
      1 C8           3.6790    -0.7270    -0.8680 c6         1 E0G       0.237500
      2 C5           2.2040     1.2120    -0.2110 ca         1 E0G       0.419000
      3 C6           2.3290     2.4190     0.5180 ca         1 E0G      -0.258600
      4 N1           3.7090     4.2680     1.3610 nt         1 E0G      -0.594000
      5 C2          -0.0160     2.1910     1.1980 ca         1 E0G      -0.205000
      6 O2           4.6090     2.9060    -0.1170 o          1 E0G      -0.642100
      7 N2           3.2830     0.6870    -0.9130 nu         1 E0G      -0.962200
      8 N3          -1.3480     0.3050     0.4200 na         1 E0G       0.238000
      9 C3          -0.1370     1.0030     0.4590 ca         1 E0G       0.077800
     10 C4           0.9810     0.5250    -0.2420 ca         1 E0G      -0.205000
     11 N4          -1.4000    -1.0180     0.7950 nc         1 E0G      -0.461800
     12 C10          4.5460    -2.6010     0.6460 c6         1 E0G      -0.091900
     13 C11          5.7590    -2.8140    -0.2940 c6         1 E0G       0.169300
     14 C12          5.4060    -2.4000    -1.7450 c6         1 E0G      -0.091900
     15 C13          4.8950    -0.9370    -1.8050 c6         1 E0G      -0.091400
     16 C14         -2.6880    -1.3030     0.6310 cd         1 E0G       0.194300
     17 C15         -3.4290    -0.1740     0.1700 cd         1 E0G      -0.263600
     18 C16         -2.5550     0.8650     0.0360 cc         1 E0G      -0.071300
     19 C19         -5.2850     1.3900    -0.5940 c6         1 E0G      -0.172400
     20 C1           1.1970     2.8940     1.2260 ca         1 E0G      -0.019000
     21 F1          -2.2800    -3.5440     1.3960 f          1 E0G      -0.101333
     22 F2          -4.2160    -2.6750     1.8460 f          1 E0G      -0.101333
     23 F3          -3.7390    -3.2810    -0.1900 f          1 E0G      -0.101333
     24 O3           6.1620    -4.1840    -0.2600 oh         1 E0G      -0.656000
     25 C7           3.6300     3.1920     0.5540 c          1 E0G       0.631700
     26 C9           4.0330    -1.1390     0.5860 c6         1 E0G      -0.091400
     27 C17         -2.8780     2.2410    -0.4920 c6         1 E0G      -0.017100
     28 C18         -4.1810     2.1950    -1.3530 c6         1 E0G      -0.033000
     29 C20         -4.8620    -0.0310    -0.1750 c          1 E0G       0.618700
     30 C22         -4.6810     3.6440    -1.6290 c3         1 E0G      -0.089600
     31 C23         -3.2290    -2.7010     0.9210 c3         1 E0G       0.297700
     32 H1           2.8580    -1.3670    -1.2270 h1         1 E0G       0.054700
     33 H2           4.5690     4.7940     1.3900 hn         1 E0G       0.316000
     34 H3           2.9270     4.5340     1.9370 hn         1 E0G       0.316000
     35 H4          -0.8680     2.5740     1.7550 ha         1 E0G       0.127000
     36 H5           4.0630     1.3570    -0.8990 hn         1 E0G       0.531000
     37 H6           0.8900    -0.3870    -0.8210 ha         1 E0G       0.145000
     38 H7           3.7340    -3.2880     0.3680 hc         1 E0G       0.054450
     39 H8           4.8260    -2.8520     1.6790 hc         1 E0G       0.054450
     40 H9           6.5850    -2.1770     0.0590 h1         1 E0G       0.028700
     41 H10          6.2880    -2.5070    -2.3920 hc         1 E0G       0.054450
     42 H11          4.6380    -3.0740    -2.1500 hc         1 E0G       0.054450
     43 H12          4.6170    -0.6860    -2.8370 hc         1 E0G       0.053700
     44 H13          5.7090    -0.2540    -1.5230 hc         1 E0G       0.053700
     45 H14         -5.4680     1.9230     0.3490 hc         1 E0G       0.072700
     46 H15         -6.2410     1.3490    -1.1320 hc         1 E0G       0.072700
     47 H16         -3.5170     0.5130    -2.6380 hc         1 E0G       0.040867
     48 H17         -4.8030     1.4900    -3.3540 hc         1 E0G       0.040867
     49 H18         -3.1460     2.1050    -3.3050 hc         1 E0G       0.040867
     50 H19          1.2340     3.8140     1.8040 ha         1 E0G       0.112000
     51 H20          6.9810    -4.2510    -0.7990 ho         1 E0G       0.442000
     52 H21          4.7990    -0.4640     0.9910 hc         1 E0G       0.053700
     53 H22          3.1510    -1.0370     1.2330 hc         1 E0G       0.053700
     54 H23         -3.0140     2.9320     0.3520 hc         1 E0G       0.067700
     55 H24         -2.0440     2.6450    -1.0830 hc         1 E0G       0.067700
     56 H25         -5.5910     3.6450    -2.2420 hc         1 E0G       0.040867
     57 H26         -4.9160     4.1710    -0.6960 hc         1 E0G       0.040867
     58 H27         -3.9250     4.2360    -2.1590 hc         1 E0G       0.040867
     59 C21         -3.8950     1.5370    -2.7390 c3         1 E0G      -0.089600
     60 O1          -5.6610    -0.9570    -0.1620 o          1 E0G      -0.508100
@<TRIPOS>BOND
     1     1     7 1   
     2     1    15 1   
     3     1    26 1   
     4     1    32 1   
     5     2     3 ar  
     6     2     7 1   
     7     2    10 ar  
     8     3    20 ar  
     9     3    25 1   
    10     4    25 1   
    11     4    33 1   
    12     4    34 1   
    13     5     9 ar  
    14     5    20 ar  
    15     5    35 1   
    16     6    25 2   
    17     7    36 1   
    18     8     9 1   
    19     8    11 1   
    20     8    18 1   
    21     9    10 ar  
    22    10    37 1   
    23    11    16 2   
    24    12    13 1   
    25    12    26 1   
    26    12    38 1   
    27    12    39 1   
    28    13    14 1   
    29    13    24 1   
    30    13    40 1   
    31    14    15 1   
    32    14    41 1   
    33    14    42 1   
    34    15    43 1   
    35    15    44 1   
    36    16    17 1   
    37    16    31 1   
    38    17    18 2   
    39    17    29 1   
    40    18    27 1   
    41    19    28 1   
    42    19    29 1   
    43    19    45 1   
    44    19    46 1   
    45    20    50 1   
    46    21    31 1   
    47    22    31 1   
    48    23    31 1   
    49    24    51 1   
    50    26    52 1   
    51    26    53 1   
    52    27    28 1   
    53    27    54 1   
    54    27    55 1   
    55    28    30 1   
    56    28    59 1   
    57    29    60 2   
    58    30    56 1   
    59    30    57 1   
    60    30    58 1   
    61    47    59 1   
    62    48    59 1   
    63    49    59 1   
@<TRIPOS>SUBSTRUCTURE
     1 E0G         1 TEMP              0 ****  ****    0 ROOT
