@<TRIPOS>MOLECULE
E0H
   21    22     1     0     0
SMALL
abcg2


@<TRIPOS>ATOM
      1 C10        -49.4770    29.7260  -180.9180 ca         1 E0H      -0.100000
      2 C13        -49.2920    30.0780  -178.5470 ca         1 E0H       0.130000
      3 C15        -48.7890    31.3510  -178.7730 ca         1 E0H      -0.088000
      4 C04        -47.3180    35.1280  -179.6750 cc         1 E0H       0.159500
      5 C05        -47.3090    35.1220  -181.0420 cd         1 E0H      -0.224000
      6 C06        -47.8100    33.8580  -181.4580 cd         1 E0H      -0.151000
      7 C07        -48.0960    33.1570  -180.3170 cc         1 E0H       0.094500
      8 C08        -48.6230    31.8280  -180.0770 ca         1 E0H      -0.054500
      9 C09        -48.9760    30.9930  -181.1470 ca         1 E0H      -0.114000
     10 C11        -49.6390    29.2570  -179.6170 ca         1 E0H       0.097000
     11 O01        -46.4610    37.2300  -179.1370 o          1 E0H      -0.693000
     12 O03        -47.0810    35.8720  -177.4510 o          1 E0H      -0.693000
     13 O16        -47.8000    33.9250  -179.2300 os         1 E0H      -0.221000
     14 CL1        -50.2720    27.6570  -179.3680 cl         1 E0H      -0.213000
     15 CL2        -49.4750    29.5350  -176.9030 cl         1 E0H      -0.201000
     16 H101       -49.7480    29.0870  -181.7470 ha         1 E0H       0.118000
     17 H151       -48.5260    31.9710  -177.9290 ha         1 E0H       0.162000
     18 H051       -46.9830    35.9330  -181.6700 ha         1 E0H       0.142000
     19 H061       -47.9390    33.5110  -182.4700 ha         1 E0H       0.113000
     20 H091       -48.8590    31.3370  -182.1660 ha         1 E0H       0.119000
     21 C02        -46.9200    36.1610  -178.6610 c          1 E0H       0.617500
@<TRIPOS>BOND
     1     1     9 ar  
     2     1    10 ar  
     3     1    16 1   
     4     2     3 ar  
     5     2    10 ar  
     6     2    15 1   
     7     3     8 ar  
     8     3    17 1   
     9     4     5 2   
    10     4    13 1   
    11     4    21 1   
    12     5     6 1   
    13     5    18 1   
    14     6     7 2   
    15     6    19 1   
    16     7     8 1   
    17     7    13 1   
    18     8     9 ar  
    19     9    20 1   
    20    10    14 1   
    21    11    21 1   
    22    12    21 1   
@<TRIPOS>SUBSTRUCTURE
     1 E0H         1 TEMP              0 ****  ****    0 ROOT
