@<TRIPOS>MOLECULE
E0H
   21    22     1     0     0
SMALL
No Charge or Current Charge


@<TRIPOS>ATOM
      1 C10        -49.4630    29.7180  -180.9710 ca         1 E0H      -0.100000
      2 C13        -49.3410    29.9830  -178.5570 ca         1 E0H       0.130000
      3 C15        -48.8290    31.2810  -178.7290 ca         1 E0H      -0.088000
      4 C04        -47.3050    35.1560  -179.6190 cc         1 E0H       0.159500
      5 C05        -47.3370    35.0940  -180.9950 cd         1 E0H      -0.224000
      6 C06        -47.8400    33.8230  -181.3500 cd         1 E0H      -0.151000
      7 C07        -48.0910    33.1740  -180.1710 cc         1 E0H       0.094500
      8 C08        -48.6280    31.8140  -180.0210 ca         1 E0H      -0.054500
      9 C09        -48.9510    31.0160  -181.1410 ca         1 E0H      -0.114000
     10 C11        -49.6600    29.1970  -179.6820 ca         1 E0H       0.097000
     11 O01        -46.4450    37.3310  -179.3360 o          1 E0H      -0.693000
     12 O03        -46.8770    36.2140  -177.5590 o          1 E0H      -0.693000
     13 O16        -47.7740    33.9650  -179.0920 os         1 E0H      -0.221000
     14 Cl1        -50.3040    27.5640  -179.5060 cl         1 E0H      -0.213000
     15 Cl2        -49.5730    29.3660  -176.9200 cl         1 E0H      -0.201000
     16 H101       -49.7080    29.1140  -181.8410 ha         1 E0H       0.118000
     17 H151       -48.5900    31.8710  -177.8490 ha         1 E0H       0.162000
     18 H051       -47.0290    35.8820  -181.6750 ha         1 E0H       0.142000
     19 H061       -47.9930    33.4500  -182.3560 ha         1 E0H       0.113000
     20 H091       -48.8100    31.3910  -182.1510 ha         1 E0H       0.119000
     21 C02        -46.8440    36.3140  -178.7800 c          1 E0H       0.617500
@<TRIPOS>BOND
     1     1     9 ar  
     2     1    10 ar  
     3     1    16 1   
     4     2     3 ar  
     5     2    10 ar  
     6     2    15 1   
     7     3     8 ar  
     8     3    17 1   
     9     4     5 2   
    10     4    13 1   
    11     4    21 1   
    12     5     6 1   
    13     5    18 1   
    14     6     7 2   
    15     6    19 1   
    16     7     8 1   
    17     7    13 1   
    18     8     9 ar  
    19     9    20 1   
    20    10    14 1   
    21    11    21 1   
    22    12    21 1   
@<TRIPOS>SUBSTRUCTURE
     1 E0H         1 TEMP              0 ****  ****    0 ROOT
