@<TRIPOS>MOLECULE
E0J
   32    33     1     0     0
SMALL
abcg2


@<TRIPOS>ATOM
      1 C4          -3.6100    -0.1000     0.0050 ca         1 E0J       0.109100
      2 C1          -0.9300     2.6030    -0.0160 c3         1 E0J      -0.035800
      3 C2          -1.5950     1.2580    -0.0090 ca         1 E0J      -0.067300
      4 C3          -2.9720     1.1440    -0.0010 ca         1 E0J      -0.113000
      5 C5          -2.8390    -1.2510     0.0030 ca         1 E0J      -0.164000
      6 C6          -1.4470    -1.1530    -0.0060 ca         1 E0J      -0.157000
      7 C7          -0.8250     0.0830    -0.0110 ca         1 E0J       0.107100
      8 C9          -5.6450    -1.3120     0.0270 c3         1 E0J       0.148900
      9 C11          1.3550    -0.8620    -0.0190 c3         1 E0J       0.111300
     10 C13          3.1790     0.9150     0.0410 ca         1 E0J      -0.134000
     11 C12          2.7920    -0.4190    -0.0180 ca         1 E0J       0.344300
     12 C15          5.4520     0.1720    -0.0160 ca         1 E0J      -0.164000
     13 C14          4.5350     1.2090     0.0410 ca         1 E0J      -0.076000
     14 O8          -4.9620    -0.0770     0.0140 os         1 E0J      -0.341100
     15 O10          0.5180     0.2640    -0.0180 os         1 E0J      -0.352100
     16 C16          4.9630    -1.1250    -0.0710 ca         1 E0J       0.341900
     17 N17          3.6700    -1.4170    -0.0730 nb         1 E0J      -0.680000
     18 H1          -0.2980     2.7330    -0.8960 hc         1 E0J       0.044033
     19 H2          -1.6700     3.4010    -0.0140 hc         1 E0J       0.044033
     20 H3          -0.2890     2.7380     0.8570 hc         1 E0J       0.044033
     21 H4          -3.5780     2.0430     0.0010 ha         1 E0J       0.128000
     22 H5          -3.2840    -2.2370     0.0070 ha         1 E0J       0.117000
     23 H6          -0.8720    -2.0700    -0.0090 ha         1 E0J       0.118000
     24 H7          -5.4230    -1.9150    -0.8590 h1         1 E0J       0.039033
     25 H8          -5.4070    -1.9030     0.9170 h1         1 E0J       0.039033
     26 H9          -6.7070    -1.0820     0.0350 h1         1 E0J       0.039033
     27 H10          1.1770    -1.4920    -0.8990 h1         1 E0J       0.054700
     28 H11          1.1760    -1.4910     0.8630 h1         1 E0J       0.054700
     29 H13          6.5170     0.3560    -0.0190 ha         1 E0J       0.124000
     30 H14          4.8670     2.2380     0.0860 ha         1 E0J       0.119000
     31 H15          5.6470    -1.9650    -0.1180 h4         1 E0J       0.019100
     32 H12          2.4470     1.7080     0.0860 ha         1 E0J       0.139000
@<TRIPOS>BOND
     1     1     4 ar  
     2     1     5 ar  
     3     1    14 1   
     4     2     3 1   
     5     2    18 1   
     6     2    19 1   
     7     2    20 1   
     8     3     4 ar  
     9     3     7 ar  
    10     4    21 1   
    11     5     6 ar  
    12     5    22 1   
    13     6     7 ar  
    14     6    23 1   
    15     7    15 1   
    16     8    14 1   
    17     8    24 1   
    18     8    25 1   
    19     8    26 1   
    20     9    11 1   
    21     9    15 1   
    22     9    27 1   
    23     9    28 1   
    24    10    11 ar  
    25    10    13 ar  
    26    10    32 1   
    27    11    17 ar  
    28    12    13 ar  
    29    12    16 ar  
    30    12    29 1   
    31    13    30 1   
    32    16    17 ar  
    33    16    31 1   
@<TRIPOS>SUBSTRUCTURE
     1 E0J         1 TEMP              0 ****  ****    0 ROOT
