@<TRIPOS>MOLECULE
E0J
   32    33     1     0     0
SMALL
No Charge or Current Charge


@<TRIPOS>ATOM
      1 C4          -3.6610    -0.0660    -0.0570 ca         1 E0J       0.109100
      2 C1          -0.9390     2.5910    -0.5690 c3         1 E0J      -0.035800
      3 C2          -1.6130     1.2470    -0.3100 ca         1 E0J      -0.067300
      4 C3          -3.0190     1.1600    -0.2940 ca         1 E0J      -0.113000
      5 C5          -2.8880    -1.2240     0.1680 ca         1 E0J      -0.164000
      6 C6          -1.4830    -1.1470     0.1550 ca         1 E0J      -0.157000
      7 C7          -0.8390     0.0880    -0.0840 ca         1 E0J       0.107100
      8 C9          -5.7960    -1.2850     0.1770 c3         1 E0J       0.148900
      9 C11          1.4150    -0.9220     0.1280 c3         1 E0J       0.111300
     10 C13          3.3410     0.5620     0.9050 ca         1 E0J      -0.134000
     11 C12          2.8740    -0.4660     0.0610 ca         1 E0J       0.344300
     12 C15          5.5160     0.3050    -0.0940 ca         1 E0J      -0.164000
     13 C14          4.6860     0.9600     0.8290 ca         1 E0J      -0.076000
     14 O8          -5.0420    -0.0820    -0.0560 os         1 E0J      -0.341100
     15 O10          0.5390     0.2020    -0.1040 os         1 E0J      -0.352100
     16 C16          4.9780    -0.7130    -0.9000 ca         1 E0J       0.341900
     17 N17          3.6820    -1.0990    -0.8300 nb         1 E0J      -0.680000
     18 H1          -0.3060     2.5460    -1.4630 hc         1 E0J       0.044033
     19 H2          -1.6710     3.3930    -0.7220 hc         1 E0J       0.044033
     20 H3          -0.3050     2.8810     0.2770 hc         1 E0J       0.044033
     21 H4          -3.6230     2.0470    -0.4670 ha         1 E0J       0.128000
     22 H5          -3.3540    -2.1870     0.3550 ha         1 E0J       0.117000
     23 H6          -0.9140    -2.0550     0.3320 ha         1 E0J       0.118000
     24 H7          -5.5680    -2.0420    -0.5850 h1         1 E0J       0.039033
     25 H8          -5.5700    -1.7020     1.1670 h1         1 E0J       0.039033
     26 H9          -6.8710    -1.0740     0.1340 h1         1 E0J       0.039033
     27 H10          1.2410    -1.7040    -0.6220 h1         1 E0J       0.054700
     28 H11          1.2320    -1.3540     1.1200 h1         1 E0J       0.054700
     29 H13          6.5640     0.5770    -0.1900 ha         1 E0J       0.124000
     30 H14          5.0720     1.7520     1.4680 ha         1 E0J       0.119000
     31 H15          5.6020    -1.2360    -1.6230 h4         1 E0J       0.019100
     32 H12          2.6630     1.0420     1.6050 ha         1 E0J       0.139000
@<TRIPOS>BOND
     1     1     4 ar  
     2     1     5 ar  
     3     1    14 1   
     4     2     3 1   
     5     2    18 1   
     6     2    19 1   
     7     2    20 1   
     8     3     4 ar  
     9     3     7 ar  
    10     4    21 1   
    11     5     6 ar  
    12     5    22 1   
    13     6     7 ar  
    14     6    23 1   
    15     7    15 1   
    16     8    14 1   
    17     8    24 1   
    18     8    25 1   
    19     8    26 1   
    20     9    11 1   
    21     9    15 1   
    22     9    27 1   
    23     9    28 1   
    24    10    11 ar  
    25    10    13 ar  
    26    10    32 1   
    27    11    17 ar  
    28    12    13 ar  
    29    12    16 ar  
    30    12    29 1   
    31    13    30 1   
    32    16    17 ar  
    33    16    31 1   
@<TRIPOS>SUBSTRUCTURE
     1 E0J         1 TEMP              0 ****  ****    0 ROOT
