@<TRIPOS>MOLECULE
E0K
   40    43     1     0     0
SMALL
abcg2


@<TRIPOS>ATOM
      1 CAU          2.8780    -3.5120     0.1350 cx         1 E0K      -0.126900
      2 CAV          1.8130    -2.8670    -0.7000 cx         1 E0K      -0.126900
      3 CAT          3.1670    -2.2370    -0.5980 cx         1 E0K      -0.122700
      4 CAR          3.3620    -0.9620     0.1790 c3         1 E0K      -0.071400
      5 CAP          3.1780     0.2850    -0.6860 c6         1 E0K       0.092300
      6 CAO          3.5090     1.5330     0.1170 c          1 E0K       0.544000
      7 OAS          4.6460     1.9500     0.2230 o          1 E0K      -0.529000
      8 NAN          2.4490     2.0960     0.7380 ns         1 E0K      -0.139000
      9 OAQ          1.8810     0.3600    -1.2620 os         1 E0K      -0.324100
     10 CAL          0.8890     0.6980    -0.4060 ca         1 E0K       0.084100
     11 CAM         -0.3830     0.1820    -0.5760 ca         1 E0K      -0.101000
     12 CAK          1.1550     1.5950     0.6260 ca         1 E0K      -0.082000
     13 CAJ          0.1310     1.9780     1.4790 ca         1 E0K      -0.126000
     14 CAI         -1.1480     1.4770     1.2970 ca         1 E0K      -0.093000
     15 CAH         -1.4230     0.5760     0.2690 ca         1 E0K       0.005000
     16 CAA         -2.7690     0.0350     0.0810 cc         1 E0K      -0.184000
     17 CAB         -3.4750    -0.0960    -1.0750 cd         1 E0K       0.207300
     18 CAF         -3.1870     0.2680    -2.4810 c3         1 E0K      -0.141400
     19 OAC         -4.6500    -0.6680    -0.8100 os         1 E0K      -0.070700
     20 NAD         -4.7490    -0.9330     0.5260 nd         1 E0K      -0.364300
     21 CAE         -3.6430    -0.5160     1.0670 cc         1 E0K       0.292300
     22 CAG         -3.4050    -0.6590     2.5280 c3         1 E0K      -0.134400
     23 H1           2.7770    -3.4640     1.2120 hc         1 E0K       0.071950
     24 H2           3.3360    -4.4240    -0.2270 hc         1 E0K       0.071950
     25 H3           1.5330    -3.3370    -1.6340 hc         1 E0K       0.071950
     26 H4           0.9910    -2.3870    -0.1840 hc         1 E0K       0.071950
     27 H5           3.8070    -2.3280    -1.4710 hc         1 E0K       0.079700
     28 H6           2.6810    -0.9380     1.0370 hc         1 E0K       0.060700
     29 H7           4.3750    -0.9310     0.5900 hc         1 E0K       0.060700
     30 H8           3.8680     0.2460    -1.5300 h1         1 E0K       0.110700
     31 H9           2.6140     2.8890     1.3440 hn         1 E0K       0.166000
     32 H10         -0.5520    -0.5390    -1.3660 ha         1 E0K       0.133000
     33 H11          0.3320     2.6790     2.2800 ha         1 E0K       0.121000
     34 H12         -1.9390     1.8080     1.9560 ha         1 E0K       0.122000
     35 H13         -4.0740     0.6630    -2.9750 hc         1 E0K       0.066033
     36 H14         -2.4050     1.0240    -2.5220 hc         1 E0K       0.066033
     37 H15         -2.8460    -0.5980    -3.0520 hc         1 E0K       0.066033
     38 H16         -3.5210     0.2970     3.0400 hc         1 E0K       0.057367
     39 H17         -4.1100    -1.3620     2.9680 hc         1 E0K       0.057367
     40 H18         -2.3930    -1.0120     2.7220 hc         1 E0K       0.057367
@<TRIPOS>BOND
     1     1     2 1   
     2     1     3 1   
     3     1    23 1   
     4     1    24 1   
     5     2     3 1   
     6     2    25 1   
     7     2    26 1   
     8     3     4 1   
     9     3    27 1   
    10     4     5 1   
    11     4    28 1   
    12     4    29 1   
    13     5     6 1   
    14     5     9 1   
    15     5    30 1   
    16     6     7 2   
    17     6     8 1   
    18     8    12 1   
    19     8    31 1   
    20     9    10 1   
    21    10    11 ar  
    22    10    12 ar  
    23    11    15 ar  
    24    11    32 1   
    25    12    13 ar  
    26    13    14 ar  
    27    13    33 1   
    28    14    15 ar  
    29    14    34 1   
    30    15    16 1   
    31    16    17 2   
    32    16    21 1   
    33    17    18 1   
    34    17    19 1   
    35    18    35 1   
    36    18    36 1   
    37    18    37 1   
    38    19    20 1   
    39    20    21 2   
    40    21    22 1   
    41    22    38 1   
    42    22    39 1   
    43    22    40 1   
@<TRIPOS>SUBSTRUCTURE
     1 E0K         1 TEMP              0 ****  ****    0 ROOT
