@<TRIPOS>MOLECULE
E0K
   40    43     1     0     0
SMALL
No Charge or Current Charge


@<TRIPOS>ATOM
      1 CAU          3.1410    -3.5740    -0.0080 cx         1 E0K      -0.126900
      2 CAV          1.9720    -2.9540    -0.7400 cx         1 E0K      -0.126900
      3 CAT          3.3160    -2.2630    -0.7390 cx         1 E0K      -0.122700
      4 CAR          3.5360    -0.9620     0.0290 c3         1 E0K      -0.071400
      5 CAP          3.2140     0.3320    -0.7830 c6         1 E0K       0.092300
      6 CAO          3.4930     1.5970     0.0700 c          1 E0K       0.544000
      7 OAS          4.5050     2.2800    -0.0390 o          1 E0K      -0.529000
      8 NAN          2.4370     1.9500     0.8820 ns         1 E0K      -0.139000
      9 OAQ          1.8310     0.2730    -1.2380 os         1 E0K      -0.324100
     10 CAL          0.8350     0.6120    -0.3410 ca         1 E0K       0.084100
     11 CAM         -0.4690     0.1340    -0.5370 ca         1 E0K      -0.101000
     12 CAK          1.1260     1.4460     0.7540 ca         1 E0K      -0.082000
     13 CAJ          0.1130     1.7900     1.6600 ca         1 E0K      -0.126000
     14 CAI         -1.1900     1.2930     1.4700 ca         1 E0K      -0.093000
     15 CAH         -1.5030     0.4650     0.3680 ca         1 E0K       0.005000
     16 CAA         -2.8710    -0.0530     0.1760 cc         1 E0K      -0.184000
     17 CAB         -3.4670    -0.1660    -1.0500 cd         1 E0K       0.207300
     18 CAF         -2.9920     0.1400    -2.4470 c3         1 E0K      -0.141400
     19 OAC         -4.7780    -0.5340    -0.8950 os         1 E0K      -0.070700
     20 NAD         -5.0720    -0.6160     0.5070 nd         1 E0K      -0.364300
     21 CAE         -3.9280    -0.3020     1.0890 cc         1 E0K       0.292300
     22 CAG         -3.7830    -0.2880     2.5860 c3         1 E0K      -0.134400
     23 H1           3.1240    -3.5570     1.0790 hc         1 E0K       0.071950
     24 H2           3.5990    -4.4600    -0.4410 hc         1 E0K       0.071950
     25 H3           1.6450    -3.4220    -1.6650 hc         1 E0K       0.071950
     26 H4           1.1730    -2.5220    -0.1420 hc         1 E0K       0.071950
     27 H5           3.8850    -2.3000    -1.6660 hc         1 E0K       0.079700
     28 H6           2.9420    -0.9750     0.9520 hc         1 E0K       0.060700
     29 H7           4.5830    -0.9250     0.3550 hc         1 E0K       0.060700
     30 H8           3.8740     0.3780    -1.6600 h1         1 E0K       0.110700
     31 H9           2.5680     2.7480     1.4910 hn         1 E0K       0.166000
     32 H10         -0.6520    -0.5320    -1.3730 ha         1 E0K       0.133000
     33 H11          0.3270     2.4440     2.5020 ha         1 E0K       0.121000
     34 H12         -1.9610     1.5970     2.1700 ha         1 E0K       0.122000
     35 H13         -3.8380     0.3650    -3.1070 hc         1 E0K       0.066033
     36 H14         -2.3270     1.0110    -2.4610 hc         1 E0K       0.066033
     37 H15         -2.4570    -0.7140    -2.8770 hc         1 E0K       0.066033
     38 H16         -3.9750     0.7130     2.9870 hc         1 E0K       0.057367
     39 H17         -4.4970    -0.9760     3.0530 hc         1 E0K       0.057367
     40 H18         -2.7790    -0.6030     2.8900 hc         1 E0K       0.057367
@<TRIPOS>BOND
     1     1     2 1   
     2     1     3 1   
     3     1    23 1   
     4     1    24 1   
     5     2     3 1   
     6     2    25 1   
     7     2    26 1   
     8     3     4 1   
     9     3    27 1   
    10     4     5 1   
    11     4    28 1   
    12     4    29 1   
    13     5     6 1   
    14     5     9 1   
    15     5    30 1   
    16     6     7 2   
    17     6     8 1   
    18     8    12 1   
    19     8    31 1   
    20     9    10 1   
    21    10    11 ar  
    22    10    12 ar  
    23    11    15 ar  
    24    11    32 1   
    25    12    13 ar  
    26    13    14 ar  
    27    13    33 1   
    28    14    15 ar  
    29    14    34 1   
    30    15    16 1   
    31    16    17 2   
    32    16    21 1   
    33    17    18 1   
    34    17    19 1   
    35    18    35 1   
    36    18    36 1   
    37    18    37 1   
    38    19    20 1   
    39    20    21 2   
    40    21    22 1   
    41    22    38 1   
    42    22    39 1   
    43    22    40 1   
@<TRIPOS>SUBSTRUCTURE
     1 E0K         1 TEMP              0 ****  ****    0 ROOT
