@<TRIPOS>MOLECULE
E0L
   39    41     1     0     0
SMALL
abcg2


@<TRIPOS>ATOM
      1 C4          24.7450     5.1950    -9.8160 ca         1 E0L      -0.114800
      2 C14         28.2300     5.6150    -8.3930 c          1 E0L       0.611300
      3 C5          23.9930     4.8990    -8.6770 ca         1 E0L       0.071600
      4 C6          22.6110     4.6070    -8.7670 ca         1 E0L       0.226000
      5 C7          26.1370     5.4250    -9.6420 cc         1 E0L      -0.042200
      6 C9          25.9470     5.1410    -7.2340 c          1 E0L       0.570200
      7 C12         20.4870     4.1090    -7.6680 c3         1 E0L       0.179100
      8 C3          24.1170     5.2680   -11.0720 ca         1 E0L      -0.072000
      9 C1          22.0230     4.7120   -10.0180 ca         1 E0L      -0.130000
     10 C2          22.7660     5.0490   -11.1580 ca         1 E0L      -0.122000
     11 O13         26.3770     5.1410    -6.0800 o          1 E0L      -0.573000
     12 C17         30.1380     5.7110    -6.8110 ca         1 E0L      -0.066000
     13 C18         30.4050     5.8490    -5.4460 ca         1 E0L      -0.182000
     14 C19         31.7090     5.9720    -5.0000 ca         1 E0L      -0.128000
     15 C21         32.5170     5.8230    -7.2620 ca         1 E0L      -0.122600
     16 C22         31.2040     5.6970    -7.7110 ca         1 E0L      -0.098000
     17 C23         33.6710     5.8010    -8.2680 c          1 E0L       0.713600
     18 O25         33.3660     5.6390    -9.4640 o          1 E0L      -0.718500
     19 O24         34.8150     5.9480    -7.7970 o          1 E0L      -0.718500
     20 C20         32.7650     5.9620    -5.9000 ca         1 E0L      -0.104000
     21 N15         28.7920     5.5640    -7.1680 ns         1 E0L      -0.132000
     22 O16         28.8430     5.8210    -9.4290 o          1 E0L      -0.590100
     23 C8          26.7480     5.3870    -8.4290 cd         1 E0L      -0.253400
     24 N10         24.6230     4.9050    -7.4600 ns         1 E0L      -0.363100
     25 N11         21.9190     4.2950    -7.6080 nu         1 E0L      -0.932200
     26 H1          26.7310     5.6330   -10.5240 ha         1 E0L       0.222000
     27 H2          20.1250     3.8940    -6.6650 h1         1 E0L       0.035033
     28 H3          20.0000     5.0240    -8.0090 h1         1 E0L       0.035033
     29 H4          20.1710     3.2910    -8.3250 h1         1 E0L       0.035033
     30 H5          24.7070     5.5010   -11.9490 ha         1 E0L       0.127000
     31 H6          20.9650     4.5160   -10.1300 ha         1 E0L       0.111000
     32 H7          22.2620     5.1120   -12.1120 ha         1 E0L       0.114000
     33 H8          29.5870     5.8600    -4.7350 ha         1 E0L       0.087000
     34 H9          31.8980     6.0770    -3.9390 ha         1 E0L       0.084000
     35 H10         31.0320     5.5830    -8.7680 ha         1 E0L       0.158000
     36 H12         33.7820     6.0590    -5.5450 ha         1 E0L       0.127000
     37 H13         28.1310     5.4290    -6.4040 hn         1 E0L       0.176000
     38 H14         24.0570     4.7990    -6.6280 hn         1 E0L       0.331500
     39 H15         22.3630     3.5760    -7.0530 hn         1 E0L       0.451000
@<TRIPOS>BOND
     1     1     3 ar  
     2     1     5 1   
     3     1     8 ar  
     4     2    21 1   
     5     2    22 2   
     6     2    23 1   
     7     3     4 ar  
     8     3    24 1   
     9     4     9 ar  
    10     4    25 1   
    11     5    23 2   
    12     5    26 1   
    13     6    11 2   
    14     6    23 1   
    15     6    24 1   
    16     7    25 1   
    17     7    27 1   
    18     7    28 1   
    19     7    29 1   
    20     8    10 ar  
    21     8    30 1   
    22     9    10 ar  
    23     9    31 1   
    24    10    32 1   
    25    12    13 ar  
    26    12    16 ar  
    27    12    21 1   
    28    13    14 ar  
    29    13    33 1   
    30    14    20 ar  
    31    14    34 1   
    32    15    16 ar  
    33    15    17 1   
    34    15    20 ar  
    35    16    35 1   
    36    17    18 1   
    37    17    19 1   
    38    20    36 1   
    39    21    37 1   
    40    24    38 1   
    41    25    39 1   
@<TRIPOS>SUBSTRUCTURE
     1 E0L         1 TEMP              0 ****  ****    0 ROOT
