@<TRIPOS>MOLECULE
E0L
   39    41     1     0     0
SMALL
No Charge or Current Charge


@<TRIPOS>ATOM
      1 C4          24.7120     5.0540    -9.8810 ca         1 E0L      -0.114800
      2 C14         28.2660     5.4820    -8.5260 c          1 E0L       0.611300
      3 C5          23.9550     4.8270    -8.7200 ca         1 E0L       0.071600
      4 C6          22.5510     4.6090    -8.7950 ca         1 E0L       0.226000
      5 C7          26.1580     5.2690    -9.8010 cc         1 E0L      -0.042200
      6 C9          25.9920     5.0350    -7.3010 c          1 E0L       0.570200
      7 C12         20.3060     4.3610    -7.5360 c3         1 E0L       0.179100
      8 C3          24.0720     5.0740   -11.1340 ca         1 E0L      -0.072000
      9 C1          21.9320     4.6390   -10.0610 ca         1 E0L      -0.130000
     10 C2          22.6870     4.8700   -11.2230 ca         1 E0L      -0.122000
     11 O13         26.4370     5.0170    -6.1650 o          1 E0L      -0.573000
     12 C17         30.2100     5.6320    -6.8330 ca         1 E0L      -0.066000
     13 C18         30.4440     5.5560    -5.4490 ca         1 E0L      -0.182000
     14 C19         31.7390     5.7090    -4.9350 ca         1 E0L      -0.128000
     15 C21         32.6170     6.0220    -7.1970 ca         1 E0L      -0.122600
     16 C22         31.3020     5.8650    -7.7020 ca         1 E0L      -0.098000
     17 C23         33.7890     6.2720    -8.1380 c          1 E0L       0.713600
     18 O25         33.5730     6.3360    -9.3400 o          1 E0L      -0.718500
     19 O24         34.9080     6.4020    -7.6600 o          1 E0L      -0.718500
     20 C20         32.8190     5.9400    -5.8000 ca         1 E0L      -0.104000
     21 N15         28.8650     5.4660    -7.2710 ns         1 E0L      -0.132000
     22 O16         28.9020     5.6660    -9.5580 o          1 E0L      -0.590100
     23 C8          26.7830     5.2580    -8.5510 cd         1 E0L      -0.253400
     24 N10         24.6530     4.8410    -7.4980 ns         1 E0L      -0.363100
     25 N11         21.7780     4.3580    -7.6390 nu         1 E0L      -0.932200
     26 H1          26.7340     5.4340   -10.7100 ha         1 E0L       0.222000
     27 H2          19.9950     4.1680    -6.5010 h1         1 E0L       0.035033
     28 H3          19.9000     5.3340    -7.8440 h1         1 E0L       0.035033
     29 H4          19.8710     3.5810    -8.1770 h1         1 E0L       0.035033
     30 H5          24.6470     5.2500   -12.0410 ha         1 E0L       0.127000
     31 H6          20.8620     4.4760   -10.1570 ha         1 E0L       0.111000
     32 H7          22.1980     4.8880   -12.1940 ha         1 E0L       0.114000
     33 H8          29.6170     5.3780    -4.7660 ha         1 E0L       0.087000
     34 H9          31.9080     5.6480    -3.8620 ha         1 E0L       0.084000
     35 H10         31.1500     5.9280    -8.7740 ha         1 E0L       0.158000
     36 H12         33.8160     6.0560    -5.3790 ha         1 E0L       0.127000
     37 H13         28.2140     5.3040    -6.5130 hn         1 E0L       0.176000
     38 H14         24.1110     4.7230    -6.6550 hn         1 E0L       0.331500
     39 H15         22.2850     4.1620    -6.7770 hn         1 E0L       0.451000
@<TRIPOS>BOND
     1     1     3 ar  
     2     1     5 1   
     3     1     8 ar  
     4     2    21 1   
     5     2    22 2   
     6     2    23 1   
     7     3     4 ar  
     8     3    24 1   
     9     4     9 ar  
    10     4    25 1   
    11     5    23 2   
    12     5    26 1   
    13     6    11 2   
    14     6    23 1   
    15     6    24 1   
    16     7    25 1   
    17     7    27 1   
    18     7    28 1   
    19     7    29 1   
    20     8    10 ar  
    21     8    30 1   
    22     9    10 ar  
    23     9    31 1   
    24    10    32 1   
    25    12    13 ar  
    26    12    16 ar  
    27    12    21 1   
    28    13    14 ar  
    29    13    33 1   
    30    14    20 ar  
    31    14    34 1   
    32    15    16 ar  
    33    15    17 1   
    34    15    20 ar  
    35    16    35 1   
    36    17    18 1   
    37    17    19 1   
    38    20    36 1   
    39    21    37 1   
    40    24    38 1   
    41    25    39 1   
@<TRIPOS>SUBSTRUCTURE
     1 E0L         1 TEMP              0 ****  ****    0 ROOT
