@<TRIPOS>MOLECULE
E0M
   38    41     1     0     0
SMALL
bcc


@<TRIPOS>ATOM
      1 C01         -6.5310    -0.6850     1.0540 c3         1 E0M      -0.086100
      2 C02         -5.7030    -1.0160    -0.1870 c3         1 E0M      -0.014400
      3 C03         -6.4870    -0.7260    -1.4660 c3         1 E0M      -0.086100
      4 C04         -4.3790    -0.2900    -0.1750 ca         1 E0M      -0.103300
      5 C05         -4.3240     1.1110    -0.2070 ca         1 E0M      -0.070000
      6 C06         -3.1230     1.7910    -0.1970 ca         1 E0M      -0.152000
      7 C07         -1.9380     1.0670    -0.1530 ca         1 E0M       0.156100
      8 C09          0.3990     1.1720    -0.0970 ca         1 E0M       0.764600
      9 C11          2.6560     1.4990    -0.0450 ca         1 E0M       0.799200
     10 C13          2.8890     0.0820     0.0080 ca         1 E0M      -0.401800
     11 C14          4.2310    -0.4610     0.0700 cc         1 E0M       0.502000
     12 C19          1.7880    -0.7410    -0.0000 ca         1 E0M       0.057000
     13 C20          0.4950    -0.2230    -0.0540 ca         1 E0M      -0.430900
     14 C21         -0.6870    -1.0680    -0.0650 c          1 E0M       0.625300
     15 C23         -1.9510    -0.3230    -0.1170 ca         1 E0M      -0.223600
     16 C24         -3.1850    -0.9820    -0.1300 ca         1 E0M      -0.045000
     17 N10          1.4170     1.9930    -0.0930 nb         1 E0M      -0.806000
     18 N12          3.6500     2.3780    -0.0480 nv         1 E0M      -0.935500
     19 N15          4.5650    -1.7540     0.1560 na         1 E0M      -0.165400
     20 N16          5.8820    -1.8620     0.1890 nc         1 E0M      -0.200800
     21 N17          6.3460    -0.6810     0.1260 nd         1 E0M      -0.028000
     22 N18          5.3640     0.2130     0.0510 nd         1 E0M      -0.449000
     23 O08         -0.7860     1.7880    -0.1450 os         1 E0M      -0.323400
     24 O22         -0.6360    -2.2870    -0.0330 o          1 E0M      -0.546100
     25 H1          -7.4520    -1.2690     1.0640 hc         1 E0M       0.036867
     26 H2          -5.9830    -0.9090     1.9700 hc         1 E0M       0.036867
     27 H3          -6.8090     0.3710     1.0790 hc         1 E0M       0.036867
     28 H4          -5.4840    -2.0880    -0.1660 hc         1 E0M       0.054700
     29 H5          -5.9070    -0.9760    -2.3550 hc         1 E0M       0.036867
     30 H6          -7.4060    -1.3130    -1.4900 hc         1 E0M       0.036867
     31 H7          -6.7680     0.3270    -1.5330 hc         1 E0M       0.036867
     32 H8          -5.2390     1.6900    -0.2410 ha         1 E0M       0.140000
     33 H9          -3.0980     2.8720    -0.2230 ha         1 E0M       0.157000
     34 H10          1.8970    -1.8180     0.0330 ha         1 E0M       0.146000
     35 H11         -3.1920    -2.0650    -0.1050 ha         1 E0M       0.155000
     36 H12          4.6140     2.0790    -0.0230 hn         1 E0M       0.472800
     37 H13          3.4360     3.3610    -0.0830 hn         1 E0M       0.472800
     38 H14          3.9890    -2.5830     0.1990 hn         1 E0M       0.341700
@<TRIPOS>BOND
     1     1     2 1   
     2     1    25 1   
     3     1    26 1   
     4     1    27 1   
     5     2     3 1   
     6     2     4 1   
     7     2    28 1   
     8     3    29 1   
     9     3    30 1   
    10     3    31 1   
    11     4     5 ar  
    12     4    16 ar  
    13     5     6 ar  
    14     5    32 1   
    15     6     7 ar  
    16     6    33 1   
    17     7    15 ar  
    18     7    23 1   
    19     8    13 ar  
    20     8    17 ar  
    21     8    23 1   
    22     9    10 ar  
    23     9    17 ar  
    24     9    18 1   
    25    10    11 1   
    26    10    12 ar  
    27    11    19 1   
    28    11    22 2   
    29    12    13 ar  
    30    12    34 1   
    31    13    14 1   
    32    14    15 1   
    33    14    24 2   
    34    15    16 ar  
    35    16    35 1   
    36    18    36 1   
    37    18    37 1   
    38    19    20 1   
    39    19    38 1   
    40    20    21 2   
    41    21    22 1   
@<TRIPOS>SUBSTRUCTURE
     1 E0M         1 TEMP              0 ****  ****    0 ROOT
