@<TRIPOS>MOLECULE
E0M
   38    41     1     0     0
SMALL
No Charge or Current Charge


@<TRIPOS>ATOM
      1 C01         -6.6000    -0.7180     1.0370 c3         1 E0M      -0.086100
      2 C02         -5.7430    -1.0160    -0.2130 c3         1 E0M      -0.014400
      3 C03         -6.5190    -0.7300    -1.5190 c3         1 E0M      -0.086100
      4 C04         -4.4140    -0.2580    -0.1740 ca         1 E0M      -0.103300
      5 C05         -4.3860     1.1520    -0.1800 ca         1 E0M      -0.052000
      6 C06         -3.1590     1.8350    -0.1440 ca         1 E0M      -0.134000
      7 C07         -1.9550     1.1200    -0.1020 ca         1 E0M       0.156100
      8 C09          0.4540     1.2030    -0.0260 ca         1 E0M       0.699300
      9 C11          2.7070     1.4450     0.0420 ca         1 E0M       0.733900
     10 C13          2.9610     0.0730     0.0620 ca         1 E0M      -0.336500
     11 C14          4.3160    -0.4750     0.0580 cc         1 E0M       0.502000
     12 C19          1.8410    -0.7750     0.0250 ca         1 E0M       0.075000
     13 C20          0.5670    -0.1880    -0.0140 ca         1 E0M      -0.365600
     14 C21         -0.6650    -1.0090    -0.0510 c          1 E0M       0.625300
     15 C23         -1.9650    -0.2800    -0.0960 ca         1 E0M      -0.223600
     16 C24         -3.1970    -0.9690    -0.1320 ca         1 E0M      -0.027000
     17 N10          1.5220     2.0120    -0.0010 nb         1 E0M      -0.806000
     18 N12          3.6190     2.4020     0.0770 nv         1 E0M      -1.045900
     19 N15          4.6540    -1.7760     0.2900 na         1 E0M      -0.215700
     20 N16          5.9960    -1.9500     0.1810 nc         1 E0M      -0.200800
     21 N17          6.4520    -0.7660    -0.1210 nd         1 E0M      -0.028000
     22 N18          5.4410     0.1600    -0.2090 nd         1 E0M      -0.449000
     23 O08         -0.7740     1.8130    -0.0680 os         1 E0M      -0.323400
     24 O22         -0.6120    -2.2320    -0.0440 o          1 E0M      -0.546100
     25 H1          -7.5110    -1.3290     1.0350 hc         1 E0M       0.036867
     26 H2          -6.0390    -0.9480     1.9500 hc         1 E0M       0.036867
     27 H3          -6.8980     0.3370     1.0730 hc         1 E0M       0.036867
     28 H4          -5.5380    -2.0940    -0.2020 hc         1 E0M       0.054700
     29 H5          -5.9000    -0.9680    -2.3920 hc         1 E0M       0.036867
     30 H6          -7.4280    -1.3420    -1.5690 hc         1 E0M       0.036867
     31 H7          -6.8130     0.3240    -1.5830 hc         1 E0M       0.036867
     32 H8          -5.3130     1.7210    -0.2130 ha         1 E0M       0.122000
     33 H9          -3.1420     2.9220    -0.1490 ha         1 E0M       0.139000
     34 H10          1.9490    -1.8590     0.0170 ha         1 E0M       0.128000
     35 H11         -3.2090    -2.0580    -0.1270 ha         1 E0M       0.137000
     36 H12          4.5460     2.1340    -0.2330 hn         1 E0M       0.528000
     37 H13          3.2760     3.2980    -0.2400 hn         1 E0M       0.528000
     38 H14          4.0290    -2.5350     0.5260 hn         1 E0M       0.392000
@<TRIPOS>BOND
     1     1     2 1   
     2     1    25 1   
     3     1    26 1   
     4     1    27 1   
     5     2     3 1   
     6     2     4 1   
     7     2    28 1   
     8     3    29 1   
     9     3    30 1   
    10     3    31 1   
    11     4     5 ar  
    12     4    16 ar  
    13     5     6 ar  
    14     5    32 1   
    15     6     7 ar  
    16     6    33 1   
    17     7    15 ar  
    18     7    23 1   
    19     8    13 ar  
    20     8    17 ar  
    21     8    23 1   
    22     9    10 ar  
    23     9    17 ar  
    24     9    18 1   
    25    10    11 1   
    26    10    12 ar  
    27    11    19 1   
    28    11    22 2   
    29    12    13 ar  
    30    12    34 1   
    31    13    14 1   
    32    14    15 1   
    33    14    24 2   
    34    15    16 ar  
    35    16    35 1   
    36    18    36 1   
    37    18    37 1   
    38    19    20 1   
    39    19    38 1   
    40    20    21 2   
    41    21    22 1   
@<TRIPOS>SUBSTRUCTURE
     1 E0M         1 TEMP              0 ****  ****    0 ROOT
