@<TRIPOS>MOLECULE
E0N
   46    48     1     0     0
SMALL
abcg2


@<TRIPOS>ATOM
      1 C10          1.5010     0.3560    -0.6050 c5         1 E0N      -0.025100
      2 C15         -2.6300     0.0600     0.8940 c3         1 E0N      -0.039300
      3 C20         -5.1840    -0.0280     0.8910 c6         1 E0N      -0.069900
      4 C21         -6.4040    -0.6020     0.1780 c6         1 E0N      -0.072900
      5 C22         -6.4840    -0.1140    -1.2650 c6         1 E0N      -0.071400
      6 C24         -3.9770     0.1660    -1.2960 c6         1 E0N      -0.069900
      7 C01          1.7810    -2.9620     1.0660 c3         1 E0N       0.200100
      8 C03          3.1470    -1.1640     0.1160 ca         1 E0N       0.303000
      9 C04          4.4130    -1.7190     0.2480 ca         1 E0N      -0.171000
     10 C05          5.4870    -1.0880    -0.3780 ca         1 E0N      -0.076000
     11 C06          5.2850     0.0610    -1.1210 ca         1 E0N       0.068000
     12 C08          4.0140     0.6160    -1.2680 ca         1 E0N      -0.055000
     13 C09          2.9550    -0.0090    -0.6510 ca         1 E0N      -0.133300
     14 C11          0.8660    -0.9340    -0.0360 c5         1 E0N       0.116500
     15 C12         -0.2840    -0.5870     0.8970 c          1 E0N       0.600100
     16 C16         -2.4170     1.5970     0.9000 c          1 E0N       0.716000
     17 C19         -3.8990    -0.3670     0.1370 c6         1 E0N      -0.041700
     18 C23         -5.1930    -0.4030    -2.0230 c6         1 E0N      -0.072900
     19 N02          1.9570    -1.5940     0.6560 nh         1 E0N      -0.754400
     20 N14         -1.4900    -0.6250     0.3200 ns         1 E0N      -0.458900
     21 O13         -0.0930    -0.2710     2.0610 o          1 E0N      -0.587100
     22 O17         -1.5720     2.0570     0.1110 o          1 E0N      -0.725000
     23 O18         -3.1340     2.2380     1.6930 o          1 E0N      -0.725000
     24 CL7          6.6390     0.8260    -1.9040 cl         1 E0N      -0.241000
     25 H102         1.3350     1.2030     0.0660 hc         1 E0N       0.089700
     26 H101         1.0800     0.6200    -1.5740 hc         1 E0N       0.089700
     27 H151        -2.7410    -0.2770     1.9280 h1         1 E0N       0.064700
     28 H202        -5.2870     1.0570     0.9760 hc         1 E0N       0.054450
     29 H201        -5.1240    -0.4150     1.9120 hc         1 E0N       0.054450
     30 H212        -6.3520    -1.6970     0.1910 hc         1 E0N       0.021450
     31 H211        -7.3150    -0.3300     0.7170 hc         1 E0N       0.021450
     32 H221        -7.3340    -0.5740    -1.7750 hc         1 E0N       0.027200
     33 H222        -6.6680     0.9670    -1.2690 hc         1 E0N       0.027200
     34 H241        -4.0450     1.2590    -1.2790 hc         1 E0N       0.054450
     35 H242        -3.0720    -0.0750    -1.8620 hc         1 E0N       0.054450
     36 H011         1.8180    -3.6650     0.2260 h1         1 E0N       0.034033
     37 H012         2.5510    -3.2440     1.7840 h1         1 E0N       0.034033
     38 H013         0.8200    -3.0750     1.5650 h1         1 E0N       0.034033
     39 H041         4.5850    -2.6230     0.8170 ha         1 E0N       0.113000
     40 H051         6.4790    -1.5100    -0.2850 ha         1 E0N       0.112000
     41 H081         3.8650     1.5100    -1.8610 ha         1 E0N       0.127000
     42 H111         0.5060    -1.5590    -0.8670 h1         1 E0N       0.030700
     43 H191        -3.8500    -1.4630     0.0750 hc         1 E0N       0.011700
     44 H231        -5.0710    -1.4870    -2.1330 hc         1 E0N       0.021450
     45 H232        -5.2500     0.0050    -3.0350 hc         1 E0N       0.021450
     46 H141        -1.5120    -0.7980    -0.6730 hn         1 E0N       0.287500
@<TRIPOS>BOND
     1     1    13 1   
     2     1    14 1   
     3     1    25 1   
     4     1    26 1   
     5     2    16 1   
     6     2    17 1   
     7     2    20 1   
     8     2    27 1   
     9     3     4 1   
    10     3    17 1   
    11     3    28 1   
    12     3    29 1   
    13     4     5 1   
    14     4    30 1   
    15     4    31 1   
    16     5    18 1   
    17     5    32 1   
    18     5    33 1   
    19     6    17 1   
    20     6    18 1   
    21     6    34 1   
    22     6    35 1   
    23     7    19 1   
    24     7    36 1   
    25     7    37 1   
    26     7    38 1   
    27     8     9 ar  
    28     8    13 ar  
    29     8    19 1   
    30     9    10 ar  
    31     9    39 1   
    32    10    11 ar  
    33    10    40 1   
    34    11    12 ar  
    35    11    24 1   
    36    12    13 ar  
    37    12    41 1   
    38    14    15 1   
    39    14    19 1   
    40    14    42 1   
    41    15    20 1   
    42    15    21 2   
    43    16    22 1   
    44    16    23 1   
    45    17    43 1   
    46    18    44 1   
    47    18    45 1   
    48    20    46 1   
@<TRIPOS>SUBSTRUCTURE
     1 E0N         1 TEMP              0 ****  ****    0 ROOT
