@<TRIPOS>MOLECULE
E0N
   46    48     1     0     0
SMALL
No Charge or Current Charge


@<TRIPOS>ATOM
      1 C10          2.2920     1.0740    -0.1910 c5         1 E0N      -0.025100
      2 C15         -2.6610     1.4190     0.0520 c3         1 E0N      -0.039300
      3 C20         -4.8170     0.3950     1.0600 c6         1 E0N      -0.069900
      4 C21         -5.5820    -0.9150     1.3730 c6         1 E0N      -0.072900
      5 C22         -5.8430    -1.7340     0.0850 c6         1 E0N      -0.071400
      6 C24         -3.7580    -0.7100    -0.9840 c6         1 E0N      -0.069900
      7 C01          0.4200    -2.1050    -1.3320 c3         1 E0N       0.200100
      8 C03          2.6250    -1.3100    -0.4090 ca         1 E0N       0.303000
      9 C04          3.3030    -2.5360    -0.3400 ca         1 E0N      -0.171000
     10 C05          4.6340    -2.5390     0.1250 ca         1 E0N      -0.076000
     11 C06          5.2520    -1.3280     0.5070 ca         1 E0N       0.068000
     12 C08          4.5480    -0.1090     0.4280 ca         1 E0N      -0.055000
     13 C09          3.2230    -0.1230    -0.0380 ca         1 E0N      -0.133300
     14 C11          0.9700     0.4060    -0.7770 c5         1 E0N       0.116500
     15 C12         -0.2460     0.6250     0.2050 c          1 E0N       0.600100
     16 C16         -3.3960     2.4870    -0.8230 c          1 E0N       0.716000
     17 C19         -3.4840     0.1110     0.3110 c6         1 E0N      -0.041700
     18 C23         -4.5230    -2.0210    -0.6710 c6         1 E0N      -0.072900
     19 N02          1.3300    -1.0560    -0.8300 nh         1 E0N      -0.754400
     20 N14         -1.3170     1.1310    -0.5070 ns         1 E0N      -0.458900
     21 O13         -0.2780     0.4240     1.4160 o          1 E0N      -0.587100
     22 O17         -3.2690     2.4370    -2.0400 o          1 E0N      -0.725000
     23 O18         -3.9380     3.4230    -0.2500 o          1 E0N      -0.725000
     24 Cl7          6.9130    -1.3420     1.0870 cl         1 E0N      -0.241000
     25 H102         2.1170     1.5820     0.7650 hc         1 E0N       0.089700
     26 H101         2.6960     1.8210    -0.8820 hc         1 E0N       0.089700
     27 H151        -2.5020     1.8930     1.0290 h1         1 E0N       0.064700
     28 H202        -5.4580     1.0520     0.4570 hc         1 E0N       0.054450
     29 H201        -4.6140     0.9320     1.9970 hc         1 E0N       0.054450
     30 H212        -5.0040    -1.5210     2.0850 hc         1 E0N       0.021450
     31 H211        -6.5360    -0.6820     1.8640 hc         1 E0N       0.021450
     32 H221        -6.3410    -2.6790     0.3380 hc         1 E0N       0.027200
     33 H222        -6.5320    -1.1830    -0.5700 hc         1 E0N       0.027200
     34 H241        -4.3440    -0.1110    -1.6950 hc         1 E0N       0.054450
     35 H242        -2.8140    -0.9550    -1.4890 hc         1 E0N       0.054450
     36 H011         0.9090    -2.6950    -2.1180 h1         1 E0N       0.034033
     37 H012         0.1210    -2.7750    -0.5150 h1         1 E0N       0.034033
     38 H013        -0.4860    -1.6550    -1.7600 h1         1 E0N       0.034033
     39 H041         2.8160    -3.4600    -0.6350 ha         1 E0N       0.113000
     40 H051         5.1850    -3.4740     0.1900 ha         1 E0N       0.112000
     41 H081         5.0240     0.8220     0.7240 ha         1 E0N       0.127000
     42 H111         0.7370     0.7980    -1.7770 h1         1 E0N       0.030700
     43 H191        -2.8630    -0.5090     0.9730 hc         1 E0N       0.011700
     44 H231        -3.8880    -2.6840    -0.0690 hc         1 E0N       0.021450
     45 H232        -4.7380    -2.5580    -1.6050 hc         1 E0N       0.021450
     46 H141        -1.1800     1.2770    -1.5010 hn         1 E0N       0.287500
@<TRIPOS>BOND
     1     1    13 1   
     2     1    14 1   
     3     1    25 1   
     4     1    26 1   
     5     2    16 1   
     6     2    17 1   
     7     2    20 1   
     8     2    27 1   
     9     3     4 1   
    10     3    17 1   
    11     3    28 1   
    12     3    29 1   
    13     4     5 1   
    14     4    30 1   
    15     4    31 1   
    16     5    18 1   
    17     5    32 1   
    18     5    33 1   
    19     6    17 1   
    20     6    18 1   
    21     6    34 1   
    22     6    35 1   
    23     7    19 1   
    24     7    36 1   
    25     7    37 1   
    26     7    38 1   
    27     8     9 ar  
    28     8    13 ar  
    29     8    19 1   
    30     9    10 ar  
    31     9    39 1   
    32    10    11 ar  
    33    10    40 1   
    34    11    12 ar  
    35    11    24 1   
    36    12    13 ar  
    37    12    41 1   
    38    14    15 1   
    39    14    19 1   
    40    14    42 1   
    41    15    20 1   
    42    15    21 2   
    43    16    22 1   
    44    16    23 1   
    45    17    43 1   
    46    18    44 1   
    47    18    45 1   
    48    20    46 1   
@<TRIPOS>SUBSTRUCTURE
     1 E0N         1 TEMP              0 ****  ****    0 ROOT
