@<TRIPOS>MOLECULE
E0O
   24    24     1     0     0
SMALL
abcg2


@<TRIPOS>ATOM
      1 C10         63.0130    37.1450     0.5090 ca         1 E0O      -0.137500
      2 C13         64.4750    36.8340     2.8550 ca         1 E0O      -0.103000
      3 C05         65.2690    37.1520    -1.6980 c3         1 E0O       0.052000
      4 C06         65.7860    35.7880    -1.2600 c3         1 E0O      -0.079600
      5 C07         66.3580    37.9020    -2.4590 c3         1 E0O      -0.079600
      6 C09         64.3680    37.4710     0.5240 ca         1 E0O       0.177100
      7 C11         65.0880    37.3100     1.7060 ca         1 E0O      -0.137500
      8 C14         63.1300    36.5050     2.8170 ca         1 E0O       0.085000
      9 C08         64.0300    37.0500    -2.6360 c          1 E0O       0.710000
     10 C12         62.3950    36.6610     1.6530 ca         1 E0O      -0.103000
     11 O02         65.0100    37.9880    -0.5480 os         1 E0O      -0.373100
     12 O03         64.0250    36.0770    -3.4140 o          1 E0O      -0.715500
     13 O04         63.1970    37.9720    -2.5820 o          1 E0O      -0.715500
     14 CL1         62.3570    35.8940     4.2470 cl         1 E0O      -0.255000
     15 H01         62.4340    37.2840    -0.3930 ha         1 E0O       0.142500
     16 H31         65.0480    36.7150     3.7650 ha         1 E0O       0.111000
     17 H62         65.0210    35.1880    -0.7640 hc         1 E0O       0.028033
     18 H63         66.1290    35.2250    -2.1260 hc         1 E0O       0.028033
     19 H61         66.6310    35.8940    -0.5760 hc         1 E0O       0.028033
     20 H73         67.2670    37.9860    -1.8590 hc         1 E0O       0.028033
     21 H71         66.6090    37.3710    -3.3760 hc         1 E0O       0.028033
     22 H72         66.0300    38.9060    -2.7300 hc         1 E0O       0.028033
     23 H11         66.1400    37.5650     1.7280 ha         1 E0O       0.142500
     24 H21         61.3420    36.4140     1.6310 ha         1 E0O       0.111000
@<TRIPOS>BOND
     1     1     6 ar  
     2     1    10 ar  
     3     1    15 1   
     4     2     7 ar  
     5     2     8 ar  
     6     2    16 1   
     7     3     4 1   
     8     3     5 1   
     9     3     9 1   
    10     3    11 1   
    11     4    17 1   
    12     4    18 1   
    13     4    19 1   
    14     5    20 1   
    15     5    21 1   
    16     5    22 1   
    17     6     7 ar  
    18     6    11 1   
    19     7    23 1   
    20     8    10 ar  
    21     8    14 1   
    22     9    12 1   
    23     9    13 1   
    24    10    24 1   
@<TRIPOS>SUBSTRUCTURE
     1 E0O         1 TEMP              0 ****  ****    0 ROOT
