@<TRIPOS>MOLECULE
E0O
   24    24     1     0     0
SMALL
No Charge or Current Charge


@<TRIPOS>ATOM
      1 C10         63.4010    36.5500     0.5470 ca         1 E0O      -0.137500
      2 C13         64.2700    37.3500     3.1010 ca         1 E0O      -0.103000
      3 C05         65.3070    37.1200    -1.7550 c3         1 E0O       0.052000
      4 C06         65.5300    35.5770    -1.7520 c3         1 E0O      -0.079600
      5 C07         66.4840    37.7980    -2.5000 c3         1 E0O      -0.079600
      6 C09         64.6190    37.2570     0.6820 ca         1 E0O       0.177100
      7 C11         65.0400    37.6560     1.9640 ca         1 E0O      -0.137500
      8 C14         63.0670    36.6410     2.9590 ca         1 E0O       0.085000
      9 C08         63.9650    37.5670    -2.4660 c          1 E0O       0.710000
     10 C12         62.6310    36.2430     1.6850 ca         1 E0O      -0.103000
     11 O02         65.4410    37.6000    -0.3820 os         1 E0O      -0.373100
     12 O03         63.5570    36.9030    -3.4120 o          1 E0O      -0.715500
     13 O04         63.3260    38.5060    -2.0050 o          1 E0O      -0.715500
     14 Cl1         62.1010    36.2570     4.3780 cl         1 E0O      -0.255000
     15 H01         63.0290    36.2390    -0.4220 ha         1 E0O       0.142500
     16 H31         64.6060    37.6600     4.0870 ha         1 E0O       0.111000
     17 H62         64.6690    35.0350    -1.3500 hc         1 E0O       0.028033
     18 H63         65.6990    35.2100    -2.7720 hc         1 E0O       0.028033
     19 H61         66.4100    35.3130    -1.1530 hc         1 E0O       0.028033
     20 H73         67.4450    37.5400    -2.0390 hc         1 E0O       0.028033
     21 H71         66.5140    37.4810    -3.5500 hc         1 E0O       0.028033
     22 H72         66.3760    38.8900    -2.4820 hc         1 E0O       0.028033
     23 H11         65.9720    38.2040     2.0740 ha         1 E0O       0.142500
     24 H21         61.6950    35.7000     1.5780 ha         1 E0O       0.111000
@<TRIPOS>BOND
     1     1     6 ar  
     2     1    10 ar  
     3     1    15 1   
     4     2     7 ar  
     5     2     8 ar  
     6     2    16 1   
     7     3     4 1   
     8     3     5 1   
     9     3     9 1   
    10     3    11 1   
    11     4    17 1   
    12     4    18 1   
    13     4    19 1   
    14     5    20 1   
    15     5    21 1   
    16     5    22 1   
    17     6     7 ar  
    18     6    11 1   
    19     7    23 1   
    20     8    10 ar  
    21     8    14 1   
    22     9    12 1   
    23     9    13 1   
    24    10    24 1   
@<TRIPOS>SUBSTRUCTURE
     1 E0O         1 TEMP              0 ****  ****    0 ROOT
