@<TRIPOS>MOLECULE
E0P
   42    44     1     0     0
SMALL
No Charge or Current Charge


@<TRIPOS>ATOM
      1 C01         -5.7870     3.2820    -0.1830 c3         1 E0P      -0.099100
      2 C02         -5.8820     1.7690     0.0710 c3         1 E0P       0.171600
      3 C04         -4.3760    -0.1040     0.2170 c          1 E0P       0.639700
      4 C06         -2.9470    -0.5280     0.1460 ca         1 E0P      -0.328600
      5 C07         -1.9060     0.4100     0.2170 ca         1 E0P       0.110000
      6 C08         -0.5870    -0.0660     0.1620 ca         1 E0P      -0.375600
      7 C09          0.5710     0.8530     0.2350 c          1 E0P       0.624300
      8 C11          1.9280     0.2400     0.1710 ca         1 E0P      -0.222600
      9 C12          3.0980     1.0280     0.2310 ca         1 E0P      -0.027000
     10 C13          4.3710     0.4250     0.1690 ca         1 E0P      -0.105300
     11 C14          5.6330     1.2890     0.2350 c3         1 E0P      -0.013400
     12 C15          6.4810     0.9580     1.4830 c3         1 E0P      -0.086100
     13 C16          6.4620     1.1790    -1.0640 c3         1 E0P      -0.086100
     14 C17          4.4620    -0.9770     0.0470 ca         1 E0P      -0.054000
     15 C18          3.2970    -1.7590    -0.0120 ca         1 E0P      -0.136000
     16 C19          2.0360    -1.1510     0.0500 ca         1 E0P       0.157100
     17 C21         -0.3580    -1.4370     0.0420 ca         1 E0P       0.700300
     18 C23         -2.5850    -1.8640     0.0150 ca         1 E0P       0.732900
     19 N22         -1.3560    -2.3290    -0.0300 nb         1 E0P      -0.815000
     20 N24         -3.4190    -2.8850    -0.0880 nv         1 E0P      -1.051900
     21 O03         -4.5470     1.2400     0.0180 os         1 E0P      -0.441100
     22 O05         -5.3000    -0.8740     0.4480 o          1 E0P      -0.537000
     23 O10          0.4140     2.0620     0.3430 o          1 E0P      -0.543100
     24 O20          0.9170    -1.9390    -0.0100 os         1 E0P      -0.326400
     25 H1          -5.3480     3.4810    -1.1670 hc         1 E0P       0.049367
     26 H2          -6.7840     3.7350    -0.1520 hc         1 E0P       0.049367
     27 H3          -5.1660     3.7630     0.5830 hc         1 E0P       0.049367
     28 H4          -6.3360     1.5900     1.0550 h1         1 E0P       0.049700
     29 H5          -6.5180     1.3080    -0.6960 h1         1 E0P       0.049700
     30 H6          -2.1080     1.4770     0.3220 ha         1 E0P       0.154000
     31 H7           3.0180     2.1100     0.3250 ha         1 E0P       0.136000
     32 H8           5.3370     2.3420     0.3280 hc         1 E0P       0.054700
     33 H9           7.3360     1.6400     1.5600 hc         1 E0P       0.036367
     34 H10          5.8790     1.0630     2.3940 hc         1 E0P       0.036367
     35 H11          6.8650    -0.0680     1.4410 hc         1 E0P       0.036367
     36 H12          5.8470     1.4390    -1.9340 hc         1 E0P       0.036367
     37 H13          7.3170     1.8650    -1.0360 hc         1 E0P       0.036367
     38 H14          6.8450     0.1620    -1.2060 hc         1 E0P       0.036367
     39 H15          5.4340    -1.4640    -0.0020 ha         1 E0P       0.121000
     40 H16          3.3720    -2.8400    -0.1060 ha         1 E0P       0.137000
     41 H17         -4.3580    -2.7100     0.2570 hn         1 E0P       0.523000
     42 H18         -3.0050    -3.7760     0.1460 hn         1 E0P       0.523000
@<TRIPOS>BOND
     1     1     2 1   
     2     1    25 1   
     3     1    26 1   
     4     1    27 1   
     5     2    21 1   
     6     2    28 1   
     7     2    29 1   
     8     3     4 1   
     9     3    21 1   
    10     3    22 2   
    11     4     5 ar  
    12     4    18 ar  
    13     5     6 ar  
    14     5    30 1   
    15     6     7 1   
    16     6    17 ar  
    17     7     8 1   
    18     7    23 2   
    19     8     9 ar  
    20     8    16 ar  
    21     9    10 ar  
    22     9    31 1   
    23    10    11 1   
    24    10    14 ar  
    25    11    12 1   
    26    11    13 1   
    27    11    32 1   
    28    12    33 1   
    29    12    34 1   
    30    12    35 1   
    31    13    36 1   
    32    13    37 1   
    33    13    38 1   
    34    14    15 ar  
    35    14    39 1   
    36    15    16 ar  
    37    15    40 1   
    38    16    24 1   
    39    17    19 ar  
    40    17    24 1   
    41    18    19 ar  
    42    18    20 1   
    43    20    41 1   
    44    20    42 1   
@<TRIPOS>SUBSTRUCTURE
     1 E0P         1 TEMP              0 ****  ****    0 ROOT
