@<TRIPOS>MOLECULE
E0P
   42    44     1     0     0
SMALL
bcc


@<TRIPOS>ATOM
      1 C01         -5.6500     3.2530     0.0770 c3         1 E0P      -0.099100
      2 C02         -5.7760     1.7500     0.0550 c3         1 E0P       0.148400
      3 C04         -4.3120    -0.1120     0.0600 c          1 E0P       0.688700
      4 C06         -2.9020    -0.5390     0.0760 ca         1 E0P      -0.393900
      5 C07         -1.8740     0.3780     0.0950 ca         1 E0P       0.092000
      6 C08         -0.5400    -0.0240     0.1090 ca         1 E0P      -0.440900
      7 C09          0.5650     0.9210     0.1280 c          1 E0P       0.624300
      8 C11          1.8910     0.2890     0.1390 ca         1 E0P      -0.222600
      9 C12          3.0630     1.0520     0.1550 ca         1 E0P      -0.045000
     10 C13          4.3130     0.4650     0.1650 ca         1 E0P      -0.105300
     11 C14          5.5690     1.3020     0.1820 c3         1 E0P      -0.013400
     12 C15          6.3900     1.0490     1.4460 c3         1 E0P      -0.086100
     13 C16          6.4090     1.0690    -1.0740 c3         1 E0P      -0.086100
     14 C17          4.3790    -0.9360     0.1570 ca         1 E0P      -0.072000
     15 C18          3.2430    -1.7160     0.1410 ca         1 E0P      -0.154000
     16 C19          1.9980    -1.0970     0.1320 ca         1 E0P       0.157100
     17 C21         -0.3210    -1.4070     0.1030 ca         1 E0P       0.765600
     18 C23         -2.5410    -1.9300     0.0730 ca         1 E0P       0.798200
     19 N22         -1.2600    -2.3140     0.0860 nb         1 E0P      -0.815000
     20 N24         -3.4410    -2.9050     0.0550 nv         1 E0P      -0.941500
     21 O03         -4.4470     1.2010     0.0690 os         1 E0P      -0.417900
     22 O05         -5.2560    -0.8740     0.0410 o          1 E0P      -0.586000
     23 O10          0.4080     2.1320     0.1350 o          1 E0P      -0.543100
     24 O20          0.9150    -1.9160     0.1150 os         1 E0P      -0.326400
     25 H1          -5.1110     3.6250    -0.7940 hc         1 E0P       0.049367
     26 H2          -6.6480     3.6910     0.0650 hc         1 E0P       0.049367
     27 H3          -5.1430     3.6010     0.9780 hc         1 E0P       0.049367
     28 H4          -6.3280     1.3890     0.9240 h1         1 E0P       0.049700
     29 H5          -6.2980     1.4140    -0.8420 h1         1 E0P       0.049700
     30 H6          -2.0870     1.4380     0.0990 ha         1 E0P       0.172000
     31 H7           2.9750     2.1320     0.1600 ha         1 E0P       0.154000
     32 H8           5.2590     2.3510     0.1880 hc         1 E0P       0.054700
     33 H9           7.2510     1.7180     1.4820 hc         1 E0P       0.036367
     34 H10          5.7980     1.2150     2.3460 hc         1 E0P       0.036367
     35 H11          6.7680     0.0250     1.4780 hc         1 E0P       0.036367
     36 H12          5.8330     1.2600    -1.9800 hc         1 E0P       0.036367
     37 H13          7.2760     1.7320    -1.0820 hc         1 E0P       0.036367
     38 H14          6.7790     0.0430    -1.1210 hc         1 E0P       0.036367
     39 H15          5.3430    -1.4310     0.1650 ha         1 E0P       0.139000
     40 H16          3.3110    -2.7960     0.1360 ha         1 E0P       0.155000
     41 H17         -4.4260    -2.7000     0.0460 hn         1 E0P       0.467800
     42 H18         -3.1280    -3.8610     0.0550 hn         1 E0P       0.467800
@<TRIPOS>BOND
     1     1     2 1   
     2     1    25 1   
     3     1    26 1   
     4     1    27 1   
     5     2    21 1   
     6     2    28 1   
     7     2    29 1   
     8     3     4 1   
     9     3    21 1   
    10     3    22 2   
    11     4     5 ar  
    12     4    18 ar  
    13     5     6 ar  
    14     5    30 1   
    15     6     7 1   
    16     6    17 ar  
    17     7     8 1   
    18     7    23 2   
    19     8     9 ar  
    20     8    16 ar  
    21     9    10 ar  
    22     9    31 1   
    23    10    11 1   
    24    10    14 ar  
    25    11    12 1   
    26    11    13 1   
    27    11    32 1   
    28    12    33 1   
    29    12    34 1   
    30    12    35 1   
    31    13    36 1   
    32    13    37 1   
    33    13    38 1   
    34    14    15 ar  
    35    14    39 1   
    36    15    16 ar  
    37    15    40 1   
    38    16    24 1   
    39    17    19 ar  
    40    17    24 1   
    41    18    19 ar  
    42    18    20 1   
    43    20    41 1   
    44    20    42 1   
@<TRIPOS>SUBSTRUCTURE
     1 E0P         1 TEMP              0 ****  ****    0 ROOT
