@<TRIPOS>MOLECULE
E0Q
   29    30     1     0     0
SMALL
abcg2


@<TRIPOS>ATOM
      1 C15         -2.3930     1.0600    -0.6490 c          1 E0Q       0.555000
      2 C17         -1.7980     2.4360    -0.4530 c6         1 E0Q       0.067600
      3 C01          3.8850     1.2440     0.9130 c3         1 E0Q      -0.033800
      4 C02          2.4950     0.9450     0.4440 ca         1 E0Q      -0.076300
      5 C03          1.4510     1.8160     0.7320 ca         1 E0Q      -0.123000
      6 C04          0.1610     1.5260     0.3310 ca         1 E0Q       0.112100
      7 C05         -0.1350     0.3470    -0.3520 ca         1 E0Q      -0.050000
      8 C06          0.9080    -0.4830    -0.7770 ca         1 E0Q      -0.062300
      9 C07          0.6770    -1.6280    -1.7180 c3         1 E0Q      -0.040800
     10 C08          2.1940    -0.1760    -0.3260 ca         1 E0Q       0.110000
     11 C11         -2.0200    -1.2520    -0.2010 c3         1 E0Q      -0.068000
     12 C12         -2.5710    -1.2390     1.2460 c          1 E0Q       0.712000
     13 N10         -1.4880     0.0430    -0.6030 n          1 E0Q      -0.179400
     14 O13         -2.4180    -0.2010     1.9080 o          1 E0Q      -0.717500
     15 O14         -3.1020    -2.3080     1.5990 o          1 E0Q      -0.717500
     16 O16         -3.5810     0.8850    -0.8360 o          1 E0Q      -0.530000
     17 O18         -0.8290     2.4120     0.5790 os         1 E0Q      -0.310100
     18 CL9          3.5010    -1.2410    -0.7590 cl         1 E0Q      -0.243000
     19 H172        -1.3570     2.7990    -1.3900 h1         1 E0Q       0.063200
     20 H171        -2.5830     3.1250    -0.1510 h1         1 E0Q       0.063200
     21 H013         4.5780     1.3590     0.0780 hc         1 E0Q       0.038033
     22 H012         3.9040     2.1660     1.4920 hc         1 E0Q       0.038033
     23 H011         4.2750     0.4440     1.5450 hc         1 E0Q       0.038033
     24 H031         1.6450     2.7280     1.2840 ha         1 E0Q       0.120000
     25 H072        -0.2750    -1.5310    -2.2370 hc         1 E0Q       0.047033
     26 H071         1.4580    -1.6590    -2.4770 hc         1 E0Q       0.047033
     27 H073         0.6880    -2.5940    -1.2110 hc         1 E0Q       0.047033
     28 H111        -1.2330    -2.0010    -0.2570 h1         1 E0Q       0.047200
     29 H112        -2.7950    -1.5680    -0.9000 h1         1 E0Q       0.047200
@<TRIPOS>BOND
     1     1     2 1   
     2     1    13 1   
     3     1    16 2   
     4     2    17 1   
     5     2    19 1   
     6     2    20 1   
     7     3     4 1   
     8     3    21 1   
     9     3    22 1   
    10     3    23 1   
    11     4     5 ar  
    12     4    10 ar  
    13     5     6 ar  
    14     5    24 1   
    15     6     7 ar  
    16     6    17 1   
    17     7     8 ar  
    18     7    13 1   
    19     8     9 1   
    20     8    10 ar  
    21     9    25 1   
    22     9    26 1   
    23     9    27 1   
    24    10    18 1   
    25    11    12 1   
    26    11    13 1   
    27    11    28 1   
    28    11    29 1   
    29    12    14 1   
    30    12    15 1   
@<TRIPOS>SUBSTRUCTURE
     1 E0Q         1 TEMP              0 ****  ****    0 ROOT
