@<TRIPOS>MOLECULE
E0Q
   29    30     1     0     0
SMALL
No Charge or Current Charge


@<TRIPOS>ATOM
      1 C15         -2.4340     1.1230    -0.4460 c          1 E0Q       0.555000
      2 C17         -1.8070     2.5230    -0.4020 c6         1 E0Q       0.067600
      3 C01          4.0500     1.4130     0.7260 c3         1 E0Q      -0.033800
      4 C02          2.6130     1.0340     0.3780 ca         1 E0Q      -0.076300
      5 C03          1.5750     1.9300     0.6680 ca         1 E0Q      -0.123000
      6 C04          0.2510     1.5960     0.3660 ca         1 E0Q       0.112100
      7 C05         -0.0930     0.3130    -0.1360 ca         1 E0Q      -0.050000
      8 C06          0.9710    -0.5090    -0.6230 ca         1 E0Q      -0.062300
      9 C07          0.7230    -1.7270    -1.5250 c3         1 E0Q      -0.040800
     10 C08          2.3130    -0.1670    -0.3020 ca         1 E0Q       0.110000
     11 C11         -2.0500    -1.3360    -0.1900 c3         1 E0Q      -0.068000
     12 C12         -3.0660    -1.5080     0.9630 c          1 E0Q       0.712000
     13 N10         -1.5080     0.0490    -0.3760 n          1 E0Q      -0.179400
     14 O13         -2.7790    -1.0580     2.0640 o          1 E0Q      -0.717500
     15 O14         -4.0940    -2.1320     0.7370 o          1 E0Q      -0.717500
     16 O16         -3.6520     0.9690    -0.4650 o          1 E0Q      -0.530000
     17 O18         -0.7200     2.5550     0.5460 os         1 E0Q      -0.310100
     18 Cl9          3.6470    -1.2400    -0.7630 cl         1 E0Q      -0.243000
     19 H172        -1.4260     2.7560    -1.4060 h1         1 E0Q       0.063200
     20 H171        -2.5750     3.2530    -0.1160 h1         1 E0Q       0.063200
     21 H013         4.6570     1.5290    -0.1800 hc         1 E0Q       0.038033
     22 H012         4.0990     2.3600     1.2770 hc         1 E0Q       0.038033
     23 H011         4.5200     0.6470     1.3540 hc         1 E0Q       0.038033
     24 H031         1.7920     2.9010     1.1060 ha         1 E0Q       0.120000
     25 H072        -0.2190    -1.6500    -2.0770 hc         1 E0Q       0.047033
     26 H071         1.4940    -1.8240    -2.2980 hc         1 E0Q       0.047033
     27 H073         0.7150    -2.6580    -0.9470 hc         1 E0Q       0.047033
     28 H111        -1.2370    -2.0270     0.0480 h1         1 E0Q       0.047200
     29 H112        -2.5190    -1.6620    -1.1260 h1         1 E0Q       0.047200
@<TRIPOS>BOND
     1     1     2 1   
     2     1    13 1   
     3     1    16 2   
     4     2    17 1   
     5     2    19 1   
     6     2    20 1   
     7     3     4 1   
     8     3    21 1   
     9     3    22 1   
    10     3    23 1   
    11     4     5 ar  
    12     4    10 ar  
    13     5     6 ar  
    14     5    24 1   
    15     6     7 ar  
    16     6    17 1   
    17     7     8 ar  
    18     7    13 1   
    19     8     9 1   
    20     8    10 ar  
    21     9    25 1   
    22     9    26 1   
    23     9    27 1   
    24    10    18 1   
    25    11    12 1   
    26    11    13 1   
    27    11    28 1   
    28    11    29 1   
    29    12    14 1   
    30    12    15 1   
@<TRIPOS>SUBSTRUCTURE
     1 E0Q         1 TEMP              0 ****  ****    0 ROOT
