@<TRIPOS>MOLECULE
E0R
   39    41     1     0     0
SMALL
No Charge or Current Charge


@<TRIPOS>ATOM
      1 C4          -5.2050     4.0930     9.5640 ca         1 E0R      -0.117800
      2 C5          -4.4200     4.0170     8.4020 ca         1 E0R       0.073600
      3 C6          -3.0030     3.9270     8.4900 ca         1 E0R       0.228000
      4 C8          -7.2910     4.2080     8.1900 cc         1 E0R      -0.254400
      5 C15        -10.9260     4.3920     5.0460 ca         1 E0R      -0.170000
      6 C17        -13.3470     4.5780     5.3690 ca         1 E0R      -0.146600
      7 C20        -14.7540     4.6670     4.8000 c          1 E0R       0.715600
      8 C2          -3.1980     3.9760    10.9310 ca         1 E0R      -0.121000
      9 C3          -4.5940     4.0730    10.8300 ca         1 E0R      -0.074000
     10 C16        -12.2250     4.4740     4.5160 ca         1 E0R      -0.072000
     11 C18        -13.1260     4.5990     6.7650 ca         1 E0R      -0.072000
     12 C19        -11.8240     4.5170     7.2920 ca         1 E0R      -0.170000
     13 C25         -0.7490     3.5590     7.2770 c3         1 E0R       0.179100
     14 C9          -6.4620     4.1140     6.9540 c          1 E0R       0.570200
     15 N10         -5.1090     4.0260     7.1680 ns         1 E0R      -0.362100
     16 N24         -2.1910     3.8690     7.3360 nu         1 E0R      -0.931200
     17 C1          -2.4090     3.9040     9.7700 ca         1 E0R      -0.130000
     18 C7          -6.6620     4.1920     9.4320 cd         1 E0R      -0.041200
     19 C11         -8.7810     4.3140     8.1520 c          1 E0R       0.613300
     20 O13         -9.4420     4.3870     9.1830 o          1 E0R      -0.616100
     21 N12         -9.3610     4.3250     6.8870 ns         1 E0R      -0.125000
     22 C14        -10.7090     4.4130     6.4350 ca         1 E0R      -0.067000
     23 O22        -14.8970     4.6460     3.5850 o          1 E0R      -0.723000
     24 O21        -15.6950     4.7560     5.5760 o          1 E0R      -0.723000
     25 H1         -10.0800     4.3120     4.3660 ha         1 E0R       0.105500
     26 H2          -2.7260     3.9600    11.9110 ha         1 E0R       0.114000
     27 H3          -5.1970     4.1300    11.7340 ha         1 E0R       0.125000
     28 H4         -12.3560     4.4550     3.4360 ha         1 E0R       0.126500
     29 H5         -13.9660     4.6790     7.4510 ha         1 E0R       0.126500
     30 H6         -11.7110     4.5370     8.3700 ha         1 E0R       0.105500
     31 H7          -0.4010     3.5570     6.2350 h1         1 E0R       0.035367
     32 H8          -0.1690     4.3090     7.8320 h1         1 E0R       0.035367
     33 H9          -0.5500     2.5700     7.7110 h1         1 E0R       0.035367
     34 H10         -4.5540     3.9330     6.3310 hn         1 E0R       0.333500
     35 H11         -2.6440     4.0540     6.4410 hn         1 E0R       0.451000
     36 H12         -1.3300     3.8360     9.8760 ha         1 E0R       0.113000
     37 H13         -7.2580     4.2570    10.3410 ha         1 E0R       0.218000
     38 H14         -8.6880     4.2580     6.1340 hn         1 E0R       0.181000
     39 O23         -6.8840     4.1070     5.8090 o          1 E0R      -0.568000
@<TRIPOS>BOND
     1     1     2 ar  
     2     1     9 ar  
     3     1    18 1   
     4     2     3 ar  
     5     2    15 1   
     6     3    16 1   
     7     3    17 ar  
     8     4    14 1   
     9     4    18 2   
    10     4    19 1   
    11     5    10 ar  
    12     5    22 ar  
    13     5    25 1   
    14     6     7 1   
    15     6    10 ar  
    16     6    11 ar  
    17     7    23 1   
    18     7    24 1   
    19     8     9 ar  
    20     8    17 ar  
    21     8    26 1   
    22     9    27 1   
    23    10    28 1   
    24    11    12 ar  
    25    11    29 1   
    26    12    22 ar  
    27    12    30 1   
    28    13    16 1   
    29    13    31 1   
    30    13    32 1   
    31    13    33 1   
    32    14    15 1   
    33    14    39 2   
    34    15    34 1   
    35    16    35 1   
    36    17    36 1   
    37    18    37 1   
    38    19    20 2   
    39    19    21 1   
    40    21    22 1   
    41    21    38 1   
@<TRIPOS>SUBSTRUCTURE
     1 E0R         1 TEMP              0 ****  ****    0 ROOT
