@<TRIPOS>MOLECULE
E0R
   39    41     1     0     0
SMALL
abcg2


@<TRIPOS>ATOM
      1 C4          -5.2670     4.0670     9.4970 ca         1 E0R      -0.117800
      2 C5          -4.4680     3.9990     8.3530 ca         1 E0R       0.073600
      3 C6          -3.0600     3.8850     8.4520 ca         1 E0R       0.228000
      4 C8          -7.2500     4.2820     8.0860 cc         1 E0R      -0.254400
      5 C15        -10.9020     4.2900     5.0680 ca         1 E0R      -0.170000
      6 C17        -13.2770     4.5320     5.4580 ca         1 E0R      -0.146600
      7 C20        -14.7100     4.5520     4.9430 c          1 E0R       0.715600
      8 C2          -3.3250     3.7860    10.8710 ca         1 E0R      -0.121000
      9 C3          -4.6810     3.9600    10.7710 ca         1 E0R      -0.074000
     10 C16        -12.2010     4.3250     4.5980 ca         1 E0R      -0.072000
     11 C18        -12.9900     4.7140     6.8070 ca         1 E0R      -0.072000
     12 C19        -11.6930     4.6890     7.3010 ca         1 E0R      -0.170000
     13 C25         -0.8830     3.6290     7.3730 c3         1 E0R       0.179100
     14 C9          -6.4190     4.1550     6.8940 c          1 E0R       0.570200
     15 N10         -5.0800     4.0350     7.1280 ns         1 E0R      -0.362100
     16 N24         -2.3100     3.8460     7.2870 nu         1 E0R      -0.931200
     17 C1          -2.5220     3.7590     9.7230 ca         1 E0R      -0.130000
     18 C7          -6.6670     4.2240     9.3120 cd         1 E0R      -0.041200
     19 C11         -8.7390     4.4390     8.0370 c          1 E0R       0.613300
     20 O13         -9.3780     4.5730     9.0690 o          1 E0R      -0.616100
     21 N12         -9.2810     4.4090     6.8010 ns         1 E0R      -0.125000
     22 C14        -10.6250     4.4680     6.4280 ca         1 E0R      -0.067000
     23 O22        -14.8580     4.4430     3.7100 o          1 E0R      -0.723000
     24 O21        -15.6080     4.6700     5.7990 o          1 E0R      -0.723000
     25 H1         -10.0860     4.1190     4.3750 ha         1 E0R       0.105500
     26 H2          -2.8570     3.6880    11.8410 ha         1 E0R       0.114000
     27 H3          -5.3110     4.0080    11.6500 ha         1 E0R       0.125000
     28 H4         -12.3820     4.1830     3.5400 ha         1 E0R       0.126500
     29 H5         -13.8040     4.8800     7.5000 ha         1 E0R       0.126500
     30 H6         -11.5270     4.8380     8.3550 ha         1 E0R       0.105500
     31 H7          -0.4750     3.6220     6.3660 h1         1 E0R       0.035367
     32 H8          -0.3530     4.3940     7.9510 h1         1 E0R       0.035367
     33 H9          -0.6740     2.6590     7.8250 h1         1 E0R       0.035367
     34 H10         -4.5130     3.8870     6.3020 hn         1 E0R       0.333500
     35 H11         -2.5320     4.5880     6.6380 hn         1 E0R       0.451000
     36 H12         -1.4530     3.6510     9.8430 ha         1 E0R       0.113000
     37 H13         -7.2900     4.2980    10.1950 ha         1 E0R       0.218000
     38 H14         -8.6060     4.2910     6.0450 hn         1 E0R       0.181000
     39 O23         -6.8370     4.1420     5.7350 o          1 E0R      -0.568000
@<TRIPOS>BOND
     1     1     2 ar  
     2     1     9 ar  
     3     1    18 1   
     4     2     3 ar  
     5     2    15 1   
     6     3    16 1   
     7     3    17 ar  
     8     4    14 1   
     9     4    18 2   
    10     4    19 1   
    11     5    10 ar  
    12     5    22 ar  
    13     5    25 1   
    14     6     7 1   
    15     6    10 ar  
    16     6    11 ar  
    17     7    23 1   
    18     7    24 1   
    19     8     9 ar  
    20     8    17 ar  
    21     8    26 1   
    22     9    27 1   
    23    10    28 1   
    24    11    12 ar  
    25    11    29 1   
    26    12    22 ar  
    27    12    30 1   
    28    13    16 1   
    29    13    31 1   
    30    13    32 1   
    31    13    33 1   
    32    14    15 1   
    33    14    39 2   
    34    15    34 1   
    35    16    35 1   
    36    17    36 1   
    37    18    37 1   
    38    19    20 2   
    39    19    21 1   
    40    21    22 1   
    41    21    38 1   
@<TRIPOS>SUBSTRUCTURE
     1 E0R         1 TEMP              0 ****  ****    0 ROOT
