@<TRIPOS>MOLECULE
E0S
   42    45     1     0     0
SMALL
bcc


@<TRIPOS>ATOM
      1 C01         -7.2090    -1.4000     1.0700 c3         1 E0S      -0.086100
      2 C02         -6.3280    -1.6380    -0.1560 c3         1 E0S      -0.014400
      3 C03         -7.1410    -1.5300    -1.4460 c3         1 E0S      -0.086100
      4 C04         -5.1460    -0.6990    -0.1690 ca         1 E0S      -0.101300
      5 C05         -5.3260     0.6880    -0.2720 ca         1 E0S      -0.069000
      6 C06         -4.2570     1.5600    -0.2860 ca         1 E0S      -0.150000
      7 C07         -2.9690     1.0490    -0.1940 ca         1 E0S       0.154100
      8 C09         -0.6840     1.5510    -0.1350 ca         1 E0S       0.772600
      9 C11          1.4880     2.2530    -0.0890 ca         1 E0S       0.805200
     10 C13          1.9610     0.8960    -0.0010 ca         1 E0S      -0.409900
     11 C14          1.0040    -0.0940     0.0440 ca         1 E0S       0.072000
     12 C15         -0.3550     0.1960    -0.0220 ca         1 E0S      -0.432900
     13 C16         -1.3790    -0.8370     0.0180 c          1 E0S       0.623300
     14 C18         -2.7490    -0.3200    -0.0840 ca         1 E0S      -0.222600
     15 C19         -3.8540    -1.1770    -0.0730 ca         1 E0S      -0.044000
     16 C20          3.4020     0.6030     0.0670 c          1 E0S       0.732700
     17 C23          5.0610    -1.1520    -0.0360 cc         1 E0S       0.517400
     18 N10          0.1820     2.5280    -0.1650 nb         1 E0S      -0.810000
     19 N12          2.3010     3.3010    -0.1150 nv         1 E0S      -0.935500
     20 N22          3.7750    -0.7010    -0.1190 ns         1 E0S      -0.537400
     21 N24          6.1630    -0.4500     0.2230 na         1 E0S      -0.171400
     22 N25          7.1970    -1.2850     0.2120 nc         1 E0S      -0.199800
     23 N26          6.7300    -2.4380    -0.0440 nd         1 E0S      -0.028000
     24 N27          5.4070    -2.4060    -0.2060 nd         1 E0S      -0.432000
     25 O08         -1.9540     1.9540    -0.2160 os         1 E0S      -0.323400
     26 O17         -1.1230    -2.0250     0.1240 o          1 E0S      -0.538100
     27 O21          4.2500     1.4580     0.2710 o          1 E0S      -0.636100
     28 H1          -8.0230    -2.1260     1.1050 hc         1 E0S       0.037200
     29 H2          -6.6380    -1.4900     1.9950 hc         1 E0S       0.037200
     30 H3          -7.6570    -0.4050     1.0490 hc         1 E0S       0.037200
     31 H4          -5.9310    -2.6550    -0.0930 hc         1 E0S       0.055700
     32 H5          -6.5210    -1.7120    -2.3250 hc         1 E0S       0.037200
     33 H6          -7.9510    -2.2610    -1.4490 hc         1 E0S       0.037200
     34 H7          -7.5920    -0.5420    -1.5520 hc         1 E0S       0.037200
     35 H8          -6.3260     1.0980    -0.3430 ha         1 E0S       0.141000
     36 H9          -4.4120     2.6280    -0.3690 ha         1 E0S       0.157000
     37 H10          1.2730    -1.1370     0.1500 ha         1 E0S       0.155000
     38 H11         -3.6810    -2.2440     0.0120 ha         1 E0S       0.156000
     39 H12          3.2950     3.1930    -0.0010 hn         1 E0S       0.469300
     40 H13          1.9050     4.2250    -0.1610 hn         1 E0S       0.469300
     41 H14          3.1020    -1.4080    -0.3710 hn         1 E0S       0.365500
     42 H15          6.2730     0.5390     0.3930 hn         1 E0S       0.360700
@<TRIPOS>BOND
     1     1     2 1   
     2     1    28 1   
     3     1    29 1   
     4     1    30 1   
     5     2     3 1   
     6     2     4 1   
     7     2    31 1   
     8     3    32 1   
     9     3    33 1   
    10     3    34 1   
    11     4     5 ar  
    12     4    15 ar  
    13     5     6 ar  
    14     5    35 1   
    15     6     7 ar  
    16     6    36 1   
    17     7    14 ar  
    18     7    25 1   
    19     8    12 ar  
    20     8    18 ar  
    21     8    25 1   
    22     9    10 ar  
    23     9    18 ar  
    24     9    19 1   
    25    10    11 ar  
    26    10    16 1   
    27    11    12 ar  
    28    11    37 1   
    29    12    13 1   
    30    13    14 1   
    31    13    26 2   
    32    14    15 ar  
    33    15    38 1   
    34    16    20 1   
    35    16    27 2   
    36    17    20 1   
    37    17    21 1   
    38    17    24 2   
    39    19    39 1   
    40    19    40 1   
    41    20    41 1   
    42    21    22 1   
    43    21    42 1   
    44    22    23 2   
    45    23    24 1   
@<TRIPOS>SUBSTRUCTURE
     1 E0S         1 TEMP              0 ****  ****    0 ROOT
