@<TRIPOS>MOLECULE
E0S
   42    45     1     0     0
SMALL
No Charge or Current Charge


@<TRIPOS>ATOM
      1 C01         -7.2800    -1.3940     1.1090 c3         1 E0S      -0.086100
      2 C02         -6.3850    -1.6410    -0.1260 c3         1 E0S      -0.014400
      3 C03         -7.1960    -1.5910    -1.4390 c3         1 E0S      -0.086100
      4 C04         -5.2010    -0.6720    -0.1620 ca         1 E0S      -0.101300
      5 C05         -5.4100     0.7180    -0.2760 ca         1 E0S      -0.051000
      6 C06         -4.3150     1.5980    -0.3080 ca         1 E0S      -0.132000
      7 C07         -3.0070     1.0990    -0.2260 ca         1 E0S       0.154100
      8 C09         -0.6470     1.5880    -0.1860 ca         1 E0S       0.707300
      9 C11          1.5340     2.2070    -0.1580 ca         1 E0S       0.739900
     10 C13          2.0140     0.9050    -0.0380 ca         1 E0S      -0.344600
     11 C14          1.0520    -0.1210     0.0070 ca         1 E0S       0.090000
     12 C15         -0.3020     0.2410    -0.0720 ca         1 E0S      -0.367600
     13 C16         -1.3790    -0.7740    -0.0280 c          1 E0S       0.623300
     14 C18         -2.7830    -0.2780    -0.1120 ca         1 E0S      -0.222600
     15 C19         -3.8820    -1.1640    -0.0800 ca         1 E0S      -0.026000
     16 C20          3.4820     0.6340     0.0660 c          1 E0S       0.665700
     17 C23          5.1510    -1.1570    -0.0600 cc         1 E0S       0.517400
     18 N10          0.2710     2.5640    -0.2250 nb         1 E0S      -0.810000
     19 N12          2.2780     3.2960    -0.2360 nv         1 E0S      -1.045900
     20 N22          3.8830    -0.6530    -0.1650 ns         1 E0S      -0.470400
     21 N24          6.2900    -0.5120     0.3020 na         1 E0S      -0.221700
     22 N25          7.3450    -1.3650     0.2870 nc         1 E0S      -0.199800
     23 N26          6.8280    -2.5070    -0.0830 nd         1 E0S      -0.028000
     24 N27          5.4720    -2.4050    -0.3030 nd         1 E0S      -0.432000
     25 O08         -1.9590     1.9800    -0.2590 os         1 E0S      -0.323400
     26 O17         -1.1220    -1.9670     0.0730 o          1 E0S      -0.538100
     27 O21          4.2840     1.5010     0.3830 o          1 E0S      -0.636100
     28 H1          -8.0760    -2.1470     1.1650 hc         1 E0S       0.037200
     29 H2          -6.6890    -1.4560     2.0300 hc         1 E0S       0.037200
     30 H3          -7.7500    -0.4050     1.0670 hc         1 E0S       0.037200
     31 H4          -6.0020    -2.6660    -0.0340 hc         1 E0S       0.055700
     32 H5          -6.5460    -1.7900    -2.2990 hc         1 E0S       0.037200
     33 H6          -7.9900    -2.3480    -1.4310 hc         1 E0S       0.037200
     34 H7          -7.6630    -0.6090    -1.5810 hc         1 E0S       0.037200
     35 H8          -6.4180     1.1200    -0.3400 ha         1 E0S       0.123000
     36 H9          -4.4800     2.6690    -0.3960 ha         1 E0S       0.139000
     37 H10          1.3300    -1.1680     0.1240 ha         1 E0S       0.137000
     38 H11         -3.7120    -2.2360     0.0080 ha         1 E0S       0.138000
     39 H12          3.2210     3.1800     0.1250 hn         1 E0S       0.524500
     40 H13          1.7910     4.1420     0.0250 hn         1 E0S       0.524500
     41 H14          3.1670    -1.2960    -0.4580 hn         1 E0S       0.365500
     42 H15          6.3660     0.4670     0.5510 hn         1 E0S       0.411000
@<TRIPOS>BOND
     1     1     2 1   
     2     1    28 1   
     3     1    29 1   
     4     1    30 1   
     5     2     3 1   
     6     2     4 1   
     7     2    31 1   
     8     3    32 1   
     9     3    33 1   
    10     3    34 1   
    11     4     5 ar  
    12     4    15 ar  
    13     5     6 ar  
    14     5    35 1   
    15     6     7 ar  
    16     6    36 1   
    17     7    14 ar  
    18     7    25 1   
    19     8    12 ar  
    20     8    18 ar  
    21     8    25 1   
    22     9    10 ar  
    23     9    18 ar  
    24     9    19 1   
    25    10    11 ar  
    26    10    16 1   
    27    11    12 ar  
    28    11    37 1   
    29    12    13 1   
    30    13    14 1   
    31    13    26 2   
    32    14    15 ar  
    33    15    38 1   
    34    16    20 1   
    35    16    27 2   
    36    17    20 1   
    37    17    21 1   
    38    17    24 2   
    39    19    39 1   
    40    19    40 1   
    41    20    41 1   
    42    21    22 1   
    43    21    42 1   
    44    22    23 2   
    45    23    24 1   
@<TRIPOS>SUBSTRUCTURE
     1 E0S         1 TEMP              0 ****  ****    0 ROOT
