@<TRIPOS>MOLECULE
E0T
   21    22     1     0     0
SMALL
No Charge or Current Charge


@<TRIPOS>ATOM
      1 C10        -48.3470   -22.3750  -180.3280 ca         1 E0T      -0.105000
      2 C04        -48.0850   -17.2260  -177.9940 cc         1 E0T       0.157500
      3 C05        -49.1250   -17.4710  -177.1220 cd         1 E0T      -0.228000
      4 C06        -49.3920   -18.8560  -177.1610 cd         1 E0T      -0.134000
      5 C07        -48.4830   -19.3880  -178.0340 cc         1 E0T       0.089500
      6 C08        -48.4340   -20.7830  -178.4710 ca         1 E0T      -0.046500
      7 C09        -48.3870   -21.0530  -179.8540 ca         1 E0T      -0.092000
      8 C11        -48.3460   -23.4440  -179.4190 ca         1 E0T      -0.124000
      9 C12        -48.3780   -23.1930  -178.0380 ca         1 E0T       0.122000
     10 C14        -48.4200   -21.8650  -177.5550 ca         1 E0T       0.115000
     11 O01        -47.8730   -14.8950  -177.7180 o          1 E0T      -0.694500
     12 O03        -46.5360   -15.8390  -179.1020 o          1 E0T      -0.694500
     13 O16        -47.6920   -18.4120  -178.5910 os         1 E0T      -0.228000
     14 Cl1        -48.3560   -24.5680  -176.9300 cl         1 E0T      -0.216000
     15 Cl2        -48.4030   -21.5760  -175.8080 cl         1 E0T      -0.192000
     16 H1         -48.3160   -22.5690  -181.3980 ha         1 E0T       0.114000
     17 H2         -49.6460   -16.7270  -176.5280 ha         1 E0T       0.142000
     18 H3         -50.1660   -19.3900  -176.6200 ha         1 E0T       0.123000
     19 H4         -48.3900   -20.2300  -180.5670 ha         1 E0T       0.153000
     20 H5         -48.3130   -24.4680  -179.7840 ha         1 E0T       0.118000
     21 C02        -47.4540   -15.8940  -178.2920 c          1 E0T       0.619500
@<TRIPOS>BOND
     1     1     7 ar  
     2     1     8 ar  
     3     1    16 1   
     4     2     3 2   
     5     2    13 1   
     6     2    21 1   
     7     3     4 1   
     8     3    17 1   
     9     4     5 2   
    10     4    18 1   
    11     5     6 1   
    12     5    13 1   
    13     6     7 ar  
    14     6    10 ar  
    15     7    19 1   
    16     8     9 ar  
    17     8    20 1   
    18     9    10 ar  
    19     9    14 1   
    20    10    15 1   
    21    11    21 1   
    22    12    21 1   
@<TRIPOS>SUBSTRUCTURE
     1 E0T         1 TEMP              0 ****  ****    0 ROOT
