@<TRIPOS>MOLECULE
E0T
   21    22     1     0     0
SMALL
abcg2


@<TRIPOS>ATOM
      1 C10        -48.0660   -22.2150  -180.2850 ca         1 E0T      -0.105000
      2 C04        -48.2170   -17.2500  -178.0400 cc         1 E0T       0.157500
      3 C05        -48.9480   -17.4270  -176.9010 cd         1 E0T      -0.228000
      4 C06        -49.1770   -18.8230  -176.7630 cd         1 E0T      -0.134000
      5 C07        -48.5730   -19.4310  -177.8340 cc         1 E0T       0.089500
      6 C08        -48.4740   -20.7900  -178.3540 ca         1 E0T      -0.046500
      7 C09        -48.1710   -20.9590  -179.7150 ca         1 E0T      -0.092000
      8 C11        -48.2640   -23.3520  -179.5160 ca         1 E0T      -0.124000
      9 C12        -48.5580   -23.2120  -178.1680 ca         1 E0T       0.122000
     10 C14        -48.6620   -21.9500  -177.5780 ca         1 E0T       0.115000
     11 O01        -47.9240   -14.9370  -178.1380 o          1 E0T      -0.694500
     12 O03        -47.0060   -16.1940  -179.7660 o          1 E0T      -0.694500
     13 O16        -47.9870   -18.4690  -178.6120 os         1 E0T      -0.228000
     14 CL1        -48.7870   -24.6600  -177.2260 cl         1 E0T      -0.216000
     15 CL2        -48.9940   -21.8470  -175.8760 cl         1 E0T      -0.192000
     16 H1         -47.8370   -22.3120  -181.3380 ha         1 E0T       0.114000
     17 H2         -49.2840   -16.6460  -176.2400 ha         1 E0T       0.142000
     18 H3         -49.7330   -19.3050  -175.9810 ha         1 E0T       0.123000
     19 H4         -48.0260   -20.0790  -180.3240 ha         1 E0T       0.153000
     20 H5         -48.1910   -24.3410  -179.9470 ha         1 E0T       0.118000
     21 C02        -47.6630   -16.0240  -178.7120 c          1 E0T       0.619500
@<TRIPOS>BOND
     1     1     7 ar  
     2     1     8 ar  
     3     1    16 1   
     4     2     3 2   
     5     2    13 1   
     6     2    21 1   
     7     3     4 1   
     8     3    17 1   
     9     4     5 2   
    10     4    18 1   
    11     5     6 1   
    12     5    13 1   
    13     6     7 ar  
    14     6    10 ar  
    15     7    19 1   
    16     8     9 ar  
    17     8    20 1   
    18     9    10 ar  
    19     9    14 1   
    20    10    15 1   
    21    11    21 1   
    22    12    21 1   
@<TRIPOS>SUBSTRUCTURE
     1 E0T         1 TEMP              0 ****  ****    0 ROOT
