@<TRIPOS>MOLECULE
E0U
   42    44     1     0     0
SMALL
abcg2


@<TRIPOS>ATOM
      1 C2           3.2720    -3.4890    10.9500 ca         1 E0U      -0.121000
      2 C4           5.2550    -3.6740     9.6200 ca         1 E0U      -0.115800
      3 C6           3.0600    -3.9160     8.5610 ca         1 E0U       0.227000
      4 C7           6.6670    -3.6790     9.4560 cc         1 E0U      -0.038200
      5 C8           7.2720    -3.8170     8.2480 cd         1 E0U      -0.256400
      6 C9           6.4490    -3.9250     7.0470 c          1 E0U       0.570200
      7 N11          2.3300    -4.1250     7.4020 nu         1 E0U      -0.932200
      8 C14          8.7700    -3.8300     8.2210 c          1 E0U       0.613300
      9 C17         10.6750    -3.9670     6.6380 ca         1 E0U      -0.037000
     10 C20         13.3110    -4.0620     5.7270 ca         1 E0U      -0.135000
     11 C21         13.0430    -4.2320     7.0830 ca         1 E0U       0.009700
     12 C22         11.7240    -4.1780     7.5330 ca         1 E0U      -0.123000
     13 C23         14.1620    -4.4190     8.0650 c3         1 E0U      -0.187100
     14 O25         13.9500    -2.5830     9.5650 o          1 E0U      -0.723500
     15 O26         15.5460    -2.4790     8.0060 o          1 E0U      -0.723500
     16 C24         14.6040    -3.0310     8.6050 c          1 E0U       0.725000
     17 C19         12.2690    -3.8540     4.8340 ca         1 E0U      -0.102000
     18 C18         10.9600    -3.8060     5.2790 ca         1 E0U      -0.192000
     19 N15          9.3230    -3.9310     6.9940 ns         1 E0U      -0.136000
     20 O16          9.4040    -3.7530     9.2630 o          1 E0U      -0.584100
     21 C3           4.6400    -3.4920    10.8710 ca         1 E0U      -0.072000
     22 O13          6.8800    -3.9860     5.8940 o          1 E0U      -0.575000
     23 N10          5.1030    -3.9490     7.2640 ns         1 E0U      -0.362100
     24 C5           4.4710    -3.8490     8.4760 ca         1 E0U       0.071600
     25 C1           2.4900    -3.7100     9.8070 ca         1 E0U      -0.130000
     26 C12          0.8860    -4.0940     7.4600 c3         1 E0U       0.179100
     27 H1           2.7790    -3.3380    11.9010 ha         1 E0U       0.115000
     28 H2           7.2810    -3.5710    10.3420 ha         1 E0U       0.223000
     29 H3           2.6610    -4.9060     6.8510 hn         1 E0U       0.450000
     30 H4          14.3320    -4.1040     5.3690 ha         1 E0U       0.116000
     31 H5          11.5290    -4.3180     8.5840 ha         1 E0U       0.149000
     32 H6          13.8260    -5.0520     8.8890 hc         1 E0U       0.030700
     33 H7          14.9980    -4.9200     7.5740 hc         1 E0U       0.030700
     34 H9          12.4760    -3.7300     3.7790 ha         1 E0U       0.089000
     35 H10         10.1540    -3.6460     4.5730 ha         1 E0U       0.093000
     36 H11          8.6510    -3.9460     6.2270 hn         1 E0U       0.179000
     37 H12          5.2560    -3.3510    11.7500 ha         1 E0U       0.127000
     38 H13          4.5340    -3.9610     6.4260 hn         1 E0U       0.331500
     39 H14          1.4140    -3.7330     9.9140 ha         1 E0U       0.112000
     40 H15          0.4980    -4.2610     6.4580 h1         1 E0U       0.035033
     41 H16          0.4520    -4.8500     8.1230 h1         1 E0U       0.035033
     42 H17          0.5410    -3.1140     7.7930 h1         1 E0U       0.035033
@<TRIPOS>BOND
     1     1    21 ar  
     2     1    25 ar  
     3     1    27 1   
     4     2     4 1   
     5     2    21 ar  
     6     2    24 ar  
     7     3     7 1   
     8     3    24 ar  
     9     3    25 ar  
    10     4     5 2   
    11     4    28 1   
    12     5     6 1   
    13     5     8 1   
    14     6    22 2   
    15     6    23 1   
    16     7    26 1   
    17     7    29 1   
    18     8    19 1   
    19     8    20 2   
    20     9    12 ar  
    21     9    18 ar  
    22     9    19 1   
    23    10    11 ar  
    24    10    17 ar  
    25    10    30 1   
    26    11    12 ar  
    27    11    13 1   
    28    12    31 1   
    29    13    16 1   
    30    13    32 1   
    31    13    33 1   
    32    14    16 1   
    33    15    16 1   
    34    17    18 ar  
    35    17    34 1   
    36    18    35 1   
    37    19    36 1   
    38    21    37 1   
    39    23    24 1   
    40    23    38 1   
    41    25    39 1   
    42    26    40 1   
    43    26    41 1   
    44    26    42 1   
@<TRIPOS>SUBSTRUCTURE
     1 E0U         1 TEMP              0 ****  ****    0 ROOT
