@<TRIPOS>MOLECULE
E0U
   42    44     1     0     0
SMALL
No Charge or Current Charge


@<TRIPOS>ATOM
      1 C2           3.1340    -3.8670    11.0170 ca         1 E0U      -0.121000
      2 C4           5.1780    -3.9580     9.6960 ca         1 E0U      -0.115800
      3 C6           2.9910    -3.8670     8.5760 ca         1 E0U       0.227000
      4 C7           6.6400    -4.0230     9.6340 cc         1 E0U      -0.038200
      5 C8           7.2720    -4.0390     8.3870 cd         1 E0U      -0.256400
      6 C9           6.4730    -3.9850     7.1230 c          1 E0U       0.570200
      7 N11          2.2030    -3.8510     7.4030 nu         1 E0U      -0.932200
      8 C14          8.7700    -4.1080     8.3810 c          1 E0U       0.613300
      9 C17         10.7350    -4.1620     6.7140 ca         1 E0U      -0.037000
     10 C20         13.3810    -4.2460     5.7330 ca         1 E0U      -0.135000
     11 C21         13.1550    -4.0810     7.1120 ca         1 E0U       0.009700
     12 C22         11.8320    -4.0380     7.5970 ca         1 E0U      -0.123000
     13 C23         14.3340    -3.9520     8.0730 c3         1 E0U      -0.187100
     14 O25         14.1240    -1.8160     9.0800 o          1 E0U      -0.723500
     15 O26         15.4940    -1.9870     7.4270 o          1 E0U      -0.723500
     16 C24         14.7090    -2.4710     8.2300 c          1 E0U       0.725000
     17 C19         12.2980    -4.3640     4.8480 ca         1 E0U      -0.102000
     18 C18         10.9830    -4.3200     5.3390 ca         1 E0U      -0.192000
     19 N15          9.3750    -4.1250     7.1300 ns         1 E0U      -0.136000
     20 O16          9.4120    -4.1540     9.4240 o          1 E0U      -0.584100
     21 C3           4.5340    -3.9300    10.9460 ca         1 E0U      -0.072000
     22 O13          6.9260    -3.9830     5.9900 o          1 E0U      -0.575000
     23 N10          5.1190    -3.9310     7.3040 ns         1 E0U      -0.362100
     24 C5           4.4120    -3.9220     8.5190 ca         1 E0U       0.071600
     25 C1           2.3680    -3.8360     9.8400 ca         1 E0U      -0.130000
     26 C12          0.7610    -3.5550     7.3040 c3         1 E0U       0.179100
     27 H1           2.6410    -3.8450    11.9870 ha         1 E0U       0.115000
     28 H2           7.2220    -4.0600    10.5540 ha         1 E0U       0.223000
     29 H3           2.6770    -4.0570     6.5240 hn         1 E0U       0.450000
     30 H4          14.3960    -4.2790     5.3450 ha         1 E0U       0.116000
     31 H5          11.6820    -3.8980     8.6620 ha         1 E0U       0.149000
     32 H6          14.0110    -4.3640     9.0370 hc         1 E0U       0.030700
     33 H7          15.1710    -4.5080     7.6340 hc         1 E0U       0.030700
     34 H9          12.4770    -4.4880     3.7830 ha         1 E0U       0.089000
     35 H10         10.1520    -4.4120     4.6430 ha         1 E0U       0.093000
     36 H11          8.7190    -4.1030     6.3600 hn         1 E0U       0.179000
     37 H12          5.1160    -3.9570    11.8650 ha         1 E0U       0.127000
     38 H13          4.5790    -3.8610     6.4540 hn         1 E0U       0.331500
     39 H14          1.2860    -3.7940     9.9220 ha         1 E0U       0.112000
     40 H15          0.4360    -3.5840     6.2550 h1         1 E0U       0.035033
     41 H16          0.1750    -4.2940     7.8660 h1         1 E0U       0.035033
     42 H17          0.5450    -2.5560     7.7060 h1         1 E0U       0.035033
@<TRIPOS>BOND
     1     1    21 ar  
     2     1    25 ar  
     3     1    27 1   
     4     2     4 1   
     5     2    21 ar  
     6     2    24 ar  
     7     3     7 1   
     8     3    24 ar  
     9     3    25 ar  
    10     4     5 2   
    11     4    28 1   
    12     5     6 1   
    13     5     8 1   
    14     6    22 2   
    15     6    23 1   
    16     7    26 1   
    17     7    29 1   
    18     8    19 1   
    19     8    20 2   
    20     9    12 ar  
    21     9    18 ar  
    22     9    19 1   
    23    10    11 ar  
    24    10    17 ar  
    25    10    30 1   
    26    11    12 ar  
    27    11    13 1   
    28    12    31 1   
    29    13    16 1   
    30    13    32 1   
    31    13    33 1   
    32    14    16 1   
    33    15    16 1   
    34    17    18 ar  
    35    17    34 1   
    36    18    35 1   
    37    19    36 1   
    38    21    37 1   
    39    23    24 1   
    40    23    38 1   
    41    25    39 1   
    42    26    40 1   
    43    26    41 1   
    44    26    42 1   
@<TRIPOS>SUBSTRUCTURE
     1 E0U         1 TEMP              0 ****  ****    0 ROOT
