@<TRIPOS>MOLECULE
E0V
   61    65     1     0     0
SMALL
No Charge or Current Charge


@<TRIPOS>ATOM
      1 C27         -6.0400    -1.4200    -0.3050 c6         1 E0V       0.135300
      2 C19         -0.2600     0.8710    -1.3770 c6         1 E0V       0.209300
      3 C15          5.2200     4.9750     0.5900 c3         1 E0V       0.241100
      4 C20         -1.6850     0.2680    -1.1590 c6         1 E0V       0.174800
      5 C24         -4.0260     0.7280    -0.3990 c6         1 E0V       0.417500
      6 C31         -4.7480     0.2690    -1.7270 c6         1 E0V       0.147300
      7 C26         -5.2570    -0.9110     0.9410 c6         1 E0V      -0.007700
      8 C23         -0.6770     2.4690     0.4810 c6         1 E0V       0.209300
      9 C33         -5.1550    -2.0380     2.0290 c          1 E0V       0.730000
     10 C29         -6.1560    -0.2780    -1.3590 c6         1 E0V       0.122300
     11 C01          7.9500    -4.3540    -0.2160 c3         1 E0V       0.228100
     12 C03          6.0590    -2.6670    -0.0300 ca         1 E0V       0.642900
     13 C04          6.8620    -1.5220     0.1160 ca         1 E0V      -0.265000
     14 C05          6.2470    -0.2590     0.1560 ca         1 E0V       0.037000
     15 C06          4.8450    -0.2270     0.0450 cp         1 E0V      -0.290500
     16 C07          4.1620    -1.4440    -0.0930 ca         1 E0V       0.477300
     17 C10          2.6050     0.6800    -0.0750 ca         1 E0V      -0.365000
     18 C11          3.9640     0.9530     0.0590 cp         1 E0V       0.238500
     19 C13          3.4430     3.1590     0.2610 ca         1 E0V       0.423900
     20 C17          1.6770     1.7230    -0.0310 ca         1 E0V       0.462900
     21 C22         -2.0980     1.8460     0.6700 c6         1 E0V       0.174800
     22 N08          4.7320    -2.6620    -0.1330 nb         1 E0V      -0.746000
     23 N12          4.4000     2.2080     0.2230 nb         1 E0V      -0.273000
     24 N16          2.1130     2.9860     0.1480 nb         1 E0V      -0.338000
     25 N18          0.2910     1.5080    -0.1410 nh         1 E0V      -0.757300
     26 N21         -2.6490     1.2690    -0.5960 n3         1 E0V      -0.732600
     27 O25         -3.9580    -0.3870     0.5170 os         1 E0V      -0.448000
     28 O28         -7.3540    -1.9110     0.0370 oh         1 E0V      -0.791000
     29 O30         -6.8440    -0.7520    -2.5310 oh         1 E0V      -0.686000
     30 O32         -4.9000     1.3190    -2.7130 oh         1 E0V      -0.716000
     31 O34         -4.0830    -2.6250     2.1210 o          1 E0V      -0.700500
     32 O35         -5.8240    -1.8480     3.0380 o          1 E0V      -0.700500
     33 S09          2.3990    -1.0990    -0.2040 ss         1 E0V       0.016700
     34 H1          -5.4550    -2.2390    -0.7520 h1         1 E0V       0.043700
     35 H2           0.4030     0.0730    -1.7380 h1         1 E0V       0.049450
     36 H3          -0.3180     1.6210    -2.1790 h1         1 E0V       0.049450
     37 H4           5.2170     6.0670     0.7120 h1         1 E0V       0.033367
     38 H5           5.6970     4.5290     1.4740 h1         1 E0V       0.033367
     39 H6           5.8220     4.7270    -0.2940 h1         1 E0V       0.033367
     40 H7          -2.0370    -0.1160    -2.1270 h1         1 E0V       0.054450
     41 H8          -1.5890    -0.5970    -0.4860 h1         1 E0V       0.054450
     42 H9          -4.6360     1.5240     0.0570 h2         1 E0V       0.043700
     43 H10         -4.1750    -0.5620    -2.1630 h1         1 E0V       0.047700
     44 H11         -5.8180    -0.0790     1.3940 h1         1 E0V       0.025700
     45 H12         -0.7670     3.3670    -0.1480 h1         1 E0V       0.049450
     46 H13         -0.3110     2.7940     1.4660 h1         1 E0V       0.049450
     47 H14         -6.7310     0.5440    -0.9050 h1         1 E0V       0.035700
     48 H15          8.3760    -3.9570    -1.1470 h1         1 E0V       0.033700
     49 H16          8.5480    -3.9850     0.6280 h1         1 E0V       0.033700
     50 H17          8.0230    -5.4500    -0.2390 h1         1 E0V       0.033700
     51 H18          7.9400    -1.6070     0.1990 ha         1 E0V       0.116000
     52 H19          6.8320     0.6530     0.2670 ha         1 E0V       0.127000
     53 H20         -2.0260     1.0680     1.4450 h1         1 E0V       0.054450
     54 H21         -2.7690     2.6240     1.0620 h1         1 E0V       0.054450
     55 H22          5.8170    -4.6270    -0.2360 hn         1 E0V       0.505000
     56 H23          3.0850     5.1540     0.4570 hn         1 E0V       0.505000
     57 H25         -7.7700    -1.2550     0.6510 ho         1 E0V       0.578000
     58 H26         -7.4780    -1.4260    -2.1890 ho         1 E0V       0.457000
     59 H27         -5.6510     1.0110    -3.2740 ho         1 E0V       0.505000
     60 N02          6.5480    -3.9380    -0.0750 nu         1 E0V      -0.944100
     61 N14          3.8440     4.4720     0.4360 nu         1 E0V      -0.937100
@<TRIPOS>BOND
     1     1     7 1   
     2     1    10 1   
     3     1    28 1   
     4     1    34 1   
     5     2     4 1   
     6     2    25 1   
     7     2    35 1   
     8     2    36 1   
     9     3    37 1   
    10     3    38 1   
    11     3    39 1   
    12     3    61 1   
    13     4    26 1   
    14     4    40 1   
    15     4    41 1   
    16     5     6 1   
    17     5    26 1   
    18     5    27 1   
    19     5    42 1   
    20     6    10 1   
    21     6    30 1   
    22     6    43 1   
    23     7     9 1   
    24     7    27 1   
    25     7    44 1   
    26     8    21 1   
    27     8    25 1   
    28     8    45 1   
    29     8    46 1   
    30     9    31 1   
    31     9    32 1   
    32    10    29 1   
    33    10    47 1   
    34    11    48 1   
    35    11    49 1   
    36    11    50 1   
    37    11    60 1   
    38    12    13 ar  
    39    12    22 ar  
    40    12    60 1   
    41    13    14 ar  
    42    13    51 1   
    43    14    15 ar  
    44    14    52 1   
    45    15    16 ar  
    46    15    18 1   
    47    16    22 ar  
    48    16    33 1   
    49    17    18 ar  
    50    17    20 ar  
    51    17    33 1   
    52    18    23 ar  
    53    19    23 ar  
    54    19    24 ar  
    55    19    61 1   
    56    20    24 ar  
    57    20    25 1   
    58    21    26 1   
    59    21    53 1   
    60    21    54 1   
    61    28    57 1   
    62    29    58 1   
    63    30    59 1   
    64    55    60 1   
    65    56    61 1   
@<TRIPOS>SUBSTRUCTURE
     1 E0V         1 TEMP              0 ****  ****    0 ROOT
