@<TRIPOS>MOLECULE
E0V
   61    65     1     0     0
SMALL
bcc


@<TRIPOS>ATOM
      1 C27         -6.1290    -1.1570    -0.1550 c6         1 E0V       0.112100
      2 C19         -0.2590     0.5150    -1.2940 c6         1 E0V       0.209300
      3 C15          4.9670     4.7950     0.9280 c3         1 E0V       0.241100
      4 C20         -1.5900    -0.0840    -0.8810 c6         1 E0V       0.174800
      5 C24         -3.8830     0.6230    -0.3800 c6         1 E0V       0.394300
      6 C31         -4.5130     0.0330    -1.6440 c6         1 E0V       0.124100
      7 C26         -5.3830    -0.5240     1.0300 c6         1 E0V      -0.030900
      8 C23         -0.6580     2.4160     0.1290 c6         1 E0V       0.209300
      9 C33         -5.4730    -1.4040     2.2900 c          1 E0V       0.940600
     10 C29         -5.9840    -0.2480    -1.3640 c6         1 E0V       0.099100
     11 C01          8.0140    -4.0920    -0.3240 c3         1 E0V       0.228100
     12 C03          6.0420    -2.6090    -0.3210 ca         1 E0V       0.708200
     13 C04          6.8260    -1.4490    -0.0760 ca         1 E0V      -0.348300
     14 C05          6.2040    -0.2320     0.0350 ca         1 E0V       0.019000
     15 C06          4.8140    -0.1650    -0.1000 cp         1 E0V      -0.355800
     16 C07          4.1500    -1.3700    -0.3350 ca         1 E0V       0.542600
     17 C10          2.5910     0.5760    -0.2290 ca         1 E0V      -0.368700
     18 C11          3.9180     0.9520    -0.0150 cp         1 E0V       0.566800
     19 C13          3.3070     3.0660     0.4000 ca         1 E0V       0.949900
     20 C17          1.6130     1.5870    -0.1020 ca         1 E0V       0.791200
     21 C22         -1.9890     1.8030     0.5260 c6         1 E0V       0.174800
     22 N08          4.7100    -2.5550    -0.4460 nb         1 E0V      -0.746000
     23 N12          4.3020     2.1940     0.2790 nb         1 E0V      -0.799000
     24 N16          2.0020     2.8120     0.2170 nb         1 E0V      -0.864000
     25 N18          0.2740     1.3630    -0.2380 nh         1 E0V      -0.757300
     26 N21         -2.5160     0.9790    -0.5450 n3         1 E0V      -0.732600
     27 O25         -4.0400    -0.2930     0.6910 os         1 E0V      -0.401600
     28 O28         -7.4920    -1.3310     0.1290 oh         1 E0V      -0.668800
     29 O30         -6.5350    -0.8120    -2.5340 oh         1 E0V      -0.623800
     30 O32         -4.3470     0.9510    -2.6930 oh         1 E0V      -0.593800
     31 O34         -4.4620    -1.5800     2.9720 o          1 E0V      -0.805800
     32 O35         -6.6250    -1.8650     2.5190 o          1 E0V      -0.805800
     33 S09          2.4210    -1.1540    -0.4680 ss         1 E0V      -0.110200
     34 H1          -5.6430    -2.1220    -0.3860 h1         1 E0V       0.043700
     35 H2           0.4270    -0.2900    -1.5450 h1         1 E0V       0.049450
     36 H3          -0.3950     1.1100    -2.2050 h1         1 E0V       0.049450
     37 H4           4.9280     5.8470     1.1970 h1         1 E0V       0.033367
     38 H5           5.4680     4.2550     1.7330 h1         1 E0V       0.033367
     39 H6           5.5770     4.6950     0.0280 h1         1 E0V       0.033367
     40 H7          -1.9700    -0.6600    -1.7250 h1         1 E0V       0.054450
     41 H8          -1.4270    -0.7830    -0.0480 h1         1 E0V       0.054450
     42 H9          -4.4250     1.5530    -0.1400 h2         1 E0V       0.043700
     43 H10         -4.0270    -0.9280    -1.8770 h1         1 E0V       0.047700
     44 H11         -5.8880     0.4320     1.2640 h1         1 E0V       0.025700
     45 H12         -0.8020     3.1180    -0.7030 h1         1 E0V       0.049450
     46 H13         -0.2580     2.9780     0.9690 h1         1 E0V       0.049450
     47 H14         -6.4760     0.7100    -1.1270 h1         1 E0V       0.035700
     48 H15          8.5970    -3.5680    -1.0850 h1         1 E0V       0.033700
     49 H16          8.4090    -3.8170     0.6560 h1         1 E0V       0.033700
     50 H17          8.1690    -5.1580    -0.4610 h1         1 E0V       0.033700
     51 H18          7.8990    -1.5220     0.0220 ha         1 E0V       0.134000
     52 H19          6.7800     0.6650     0.2240 ha         1 E0V       0.145000
     53 H20         -1.8590     1.2410     1.4620 h1         1 E0V       0.054450
     54 H21         -2.6910     2.6150     0.7290 h1         1 E0V       0.054450
     55 H22          5.9800    -4.5930    -0.6100 hn         1 E0V       0.449800
     56 H23          2.8620     4.9900     0.7800 hn         1 E0V       0.449800
     57 H25         -7.4850    -1.6250     1.0700 ho         1 E0V       0.479000
     58 H26         -7.4930    -0.8240    -2.4440 ho         1 E0V       0.418000
     59 H27         -4.8830     0.6470    -3.4340 ho         1 E0V       0.406000
     60 N02          6.6040    -3.8230    -0.4380 nu         1 E0V      -0.888900
     61 N14          3.6190     4.3320     0.7310 nu         1 E0V      -0.881900
@<TRIPOS>BOND
     1     1     7 1   
     2     1    10 1   
     3     1    28 1   
     4     1    34 1   
     5     2     4 1   
     6     2    25 1   
     7     2    35 1   
     8     2    36 1   
     9     3    37 1   
    10     3    38 1   
    11     3    39 1   
    12     3    61 1   
    13     4    26 1   
    14     4    40 1   
    15     4    41 1   
    16     5     6 1   
    17     5    26 1   
    18     5    27 1   
    19     5    42 1   
    20     6    10 1   
    21     6    30 1   
    22     6    43 1   
    23     7     9 1   
    24     7    27 1   
    25     7    44 1   
    26     8    21 1   
    27     8    25 1   
    28     8    45 1   
    29     8    46 1   
    30     9    31 1   
    31     9    32 1   
    32    10    29 1   
    33    10    47 1   
    34    11    48 1   
    35    11    49 1   
    36    11    50 1   
    37    11    60 1   
    38    12    13 ar  
    39    12    22 ar  
    40    12    60 1   
    41    13    14 ar  
    42    13    51 1   
    43    14    15 ar  
    44    14    52 1   
    45    15    16 ar  
    46    15    18 1   
    47    16    22 ar  
    48    16    33 1   
    49    17    18 ar  
    50    17    20 ar  
    51    17    33 1   
    52    18    23 ar  
    53    19    23 ar  
    54    19    24 ar  
    55    19    61 1   
    56    20    24 ar  
    57    20    25 1   
    58    21    26 1   
    59    21    53 1   
    60    21    54 1   
    61    28    57 1   
    62    29    58 1   
    63    30    59 1   
    64    55    60 1   
    65    56    61 1   
@<TRIPOS>SUBSTRUCTURE
     1 E0V         1 TEMP              0 ****  ****    0 ROOT
