@<TRIPOS>MOLECULE
E0X
   48    51     1     0     0
SMALL
bcc


@<TRIPOS>ATOM
      1 C10        -20.1300   -31.7320   -15.5090 ca         1 E0X       0.010100
      2 C11        -19.7520   -31.1590   -14.3070 ca         1 E0X      -0.074000
      3 C12        -20.0120   -31.8130   -13.1180 ca         1 E0X      -0.195000
      4 C13        -20.6600   -33.0530   -13.1040 ca         1 E0X       0.118600
      5 C14        -21.0700   -33.6190   -14.3140 ca         1 E0X      -0.200000
      6 C15        -20.7930   -32.9450   -15.4860 ca         1 E0X       0.155900
      7 C17        -21.2890   -34.8830   -11.5580 c          1 E0X       0.706300
      8 C18        -21.2650   -35.2110   -10.1030 cc         1 E0X      -0.352400
      9 C19        -21.6780   -36.4690    -9.7670 cd         1 E0X       0.154000
     10 C21        -21.2820   -36.0870    -7.4850 cc         1 E0X       0.076000
     11 C22        -20.8570   -34.8190    -7.7100 cd         1 E0X      -0.168400
     12 C23        -20.8170   -34.2960    -9.0680 c          1 E0X       0.597500
     13 C24        -20.3970   -33.9820    -6.5870 ca         1 E0X      -0.056800
     14 C26        -20.9210   -32.7040    -6.3830 ca         1 E0X      -0.079500
     15 C27        -20.4990   -31.9220    -5.3210 ca         1 E0X      -0.172000
     16 C28        -19.5380   -32.4260    -4.4640 ca         1 E0X       0.144900
     17 C29        -19.0000   -33.6860    -4.6290 ca         1 E0X      -0.172000
     18 C02        -21.2240   -29.5040   -19.5670 ca         1 E0X       0.706200
     19 C03        -20.3220   -30.1880   -18.7360 ca         1 E0X      -0.207900
     20 C04        -20.7030   -30.5370   -17.4510 ca         1 E0X       0.219100
     21 C05        -21.9820   -30.2100   -17.0120 ca         1 E0X      -0.369300
     22 C06        -22.7960   -29.5400   -17.9060 ca         1 E0X       0.482200
     23 C30        -19.4350   -34.4570    -5.6980 ca         1 E0X      -0.079500
     24 F31        -19.1120   -31.6640    -3.4450 f          1 E0X      -0.140900
     25 F33        -21.1750   -33.4760   -16.6530 f          1 E0X      -0.125900
     26 N01        -22.4460   -29.1920   -19.1350 nb         1 E0X      -0.766000
     27 N16        -20.8430   -33.6400   -11.8580 ns         1 E0X      -0.474100
     28 N20        -21.6810   -36.8900    -8.4990 na         1 E0X      -0.565800
     29 O09        -19.7780   -31.1670   -16.7050 os         1 E0X      -0.215200
     30 O25        -20.4140   -33.1460    -9.3030 o          1 E0X      -0.594100
     31 O32        -21.6770   -35.6950   -12.3840 o          1 E0X      -0.612100
     32 CL1        -18.7470   -30.6100   -19.3040 cl         1 E0X      -0.089400
     33 H1         -19.2360   -30.2080   -14.3060 ha         1 E0X       0.151000
     34 H2         -19.6980   -31.3600   -12.1860 ha         1 E0X       0.147000
     35 H3         -21.5840   -34.5660   -14.3570 ha         1 E0X       0.184000
     36 H4         -22.0150   -37.1790   -10.5070 h4         1 E0X       0.185000
     37 H5         -21.3330   -36.5190    -6.4950 h4         1 E0X       0.164000
     38 H7         -21.6810   -32.3140    -7.0460 ha         1 E0X       0.138000
     39 H8         -20.9120   -30.9340    -5.1620 ha         1 E0X       0.152000
     40 H9         -18.2460   -34.0600    -3.9490 ha         1 E0X       0.152000
     41 H10        -22.3340   -30.4490   -16.0180 ha         1 E0X       0.156000
     42 H11        -23.8000   -29.2640   -17.6030 h4         1 E0X       0.018100
     43 H12        -19.0040   -35.4380    -5.8480 ha         1 E0X       0.138000
     44 H13        -21.5160   -28.5120   -21.2930 hn         1 E0X       0.428300
     45 H14        -19.9430   -29.1250   -21.1180 hn         1 E0X       0.428300
     46 H15        -20.5580   -33.0960   -11.0370 hn         1 E0X       0.371500
     47 H6         -21.9970   -37.8260    -8.2890 hn         1 E0X       0.463800
     48 N08        -20.9100   -29.1770   -20.8430 nv         1 E0X      -0.942500
@<TRIPOS>BOND
     1     1     2 ar  
     2     1     6 ar  
     3     1    29 1   
     4     2     3 ar  
     5     2    33 1   
     6     3     4 ar  
     7     3    34 1   
     8     4     5 ar  
     9     4    27 1   
    10     5     6 ar  
    11     5    35 1   
    12     6    25 1   
    13     7     8 1   
    14     7    27 1   
    15     7    31 2   
    16     8     9 2   
    17     8    12 1   
    18     9    28 1   
    19     9    36 1   
    20    10    11 2   
    21    10    28 1   
    22    10    37 1   
    23    11    12 1   
    24    11    13 1   
    25    12    30 2   
    26    13    14 ar  
    27    13    23 ar  
    28    14    15 ar  
    29    14    38 1   
    30    15    16 ar  
    31    15    39 1   
    32    16    17 ar  
    33    16    24 1   
    34    17    23 ar  
    35    17    40 1   
    36    18    19 ar  
    37    18    26 ar  
    38    18    48 1   
    39    19    20 ar  
    40    19    32 1   
    41    20    21 ar  
    42    20    29 1   
    43    21    22 ar  
    44    21    41 1   
    45    22    26 ar  
    46    22    42 1   
    47    23    43 1   
    48    27    46 1   
    49    28    47 1   
    50    44    48 1   
    51    45    48 1   
@<TRIPOS>SUBSTRUCTURE
     1 E0X         1 TEMP              0 ****  ****    0 ROOT
