@<TRIPOS>MOLECULE
E0X
   48    51     1     0     0
SMALL
No Charge or Current Charge


@<TRIPOS>ATOM
      1 C10        -20.0000   -31.3250   -15.4240 ca         1 E0X       0.010100
      2 C11        -19.6990   -30.7940   -14.1600 ca         1 E0X      -0.056000
      3 C12        -19.9400   -31.5550   -13.0020 ca         1 E0X      -0.177000
      4 C13        -20.4790   -32.8530   -13.0880 ca         1 E0X       0.026000
      5 C14        -20.7650   -33.3890   -14.3640 ca         1 E0X      -0.182000
      6 C15        -20.5250   -32.6310   -15.5210 ca         1 E0X       0.191000
      7 C17        -21.2490   -34.7860   -11.5690 c          1 E0X       0.639300
      8 C18        -21.2850   -35.1880   -10.1310 cc         1 E0X      -0.352400
      9 C19        -21.8620   -36.4120    -9.8680 cd         1 E0X       0.104000
     10 C21        -21.4120   -36.1200    -7.4160 cc         1 E0X       0.026000
     11 C22        -20.9050   -34.8560    -7.6590 cd         1 E0X      -0.168400
     12 C23        -20.7410   -34.3530    -9.0500 c          1 E0X       0.597500
     13 C24        -20.3790   -34.0770    -6.4970 ca         1 E0X      -0.056800
     14 C26        -20.4180   -32.6610    -6.4700 ca         1 E0X      -0.061500
     15 C27        -19.9350   -31.9430    -5.3620 ca         1 E0X      -0.154000
     16 C28        -19.4090   -32.6270    -4.2590 ca         1 E0X       0.180000
     17 C29        -19.3690   -34.0260    -4.2560 ca         1 E0X      -0.154000
     18 C02        -21.3730   -29.8050   -19.7450 ca         1 E0X       0.640900
     19 C03        -20.3400   -30.0770   -18.8300 ca         1 E0X      -0.051000
     20 C04        -20.7120   -30.2990   -17.4970 ca         1 E0X       0.219100
     21 C05        -22.0740   -30.2190   -17.1580 ca         1 E0X      -0.286000
     22 C06        -23.0110   -29.9350   -18.1610 ca         1 E0X       0.416900
     23 C30        -19.8550   -34.7470    -5.3620 ca         1 E0X      -0.061500
     24 F31        -18.9450   -31.9370    -3.1950 f          1 E0X      -0.176000
     25 F33        -20.7900   -33.1790   -16.7300 f          1 E0X      -0.161000
     26 N01        -22.6650   -29.7270   -19.4500 nb         1 E0X      -0.766000
     27 N16        -20.6890   -33.5530   -11.8680 ns         1 E0X      -0.148000
     28 N20        -21.8740   -36.8330    -8.5320 na         1 E0X      -0.621000
     29 O09        -19.7500   -30.5620   -16.5440 os         1 E0X      -0.215200
     30 O25        -20.1600   -33.3000    -9.2770 o          1 E0X      -0.594100
     31 O32        -21.7060   -35.5190   -12.4380 o          1 E0X      -0.612100
     32 Cl1        -18.6400   -30.1420   -19.3310 cl         1 E0X      -0.181000
     33 H1         -19.2830   -29.7930   -14.0780 ha         1 E0X       0.133000
     34 H2         -19.7060   -31.1270   -12.0290 ha         1 E0X       0.129000
     35 H3         -21.1640   -34.3890   -14.4860 ha         1 E0X       0.166000
     36 H4         -22.2860   -37.0810   -10.6210 h4         1 E0X       0.235000
     37 H5         -21.5290   -36.5790    -6.4360 h4         1 E0X       0.214000
     38 H7         -20.8580   -32.0990    -7.2890 ha         1 E0X       0.120000
     39 H8         -19.9770   -30.8570    -5.3540 ha         1 E0X       0.134000
     40 H9         -18.9590   -34.5530    -3.3990 ha         1 E0X       0.134000
     41 H10        -22.4110   -30.3660   -16.1370 ha         1 E0X       0.138000
     42 H11        -24.0720   -29.8670   -17.9250 h4         1 E0X       0.018100
     43 H12        -19.7840   -35.8310    -5.3370 ha         1 E0X       0.120000
     44 H13        -21.9820   -29.1310   -21.5120 hn         1 E0X       0.483500
     45 H14        -20.2700   -29.2650   -21.3450 hn         1 E0X       0.483500
     46 H15        -20.3600   -33.0530   -11.0520 hn         1 E0X       0.205000
     47 H6         -22.2770   -37.7590    -8.3550 hn         1 E0X       0.519000
     48 N08        -21.1930   -29.5670   -21.0520 nv         1 E0X      -1.052900
@<TRIPOS>BOND
     1     1     2 ar  
     2     1     6 ar  
     3     1    29 1   
     4     2     3 ar  
     5     2    33 1   
     6     3     4 ar  
     7     3    34 1   
     8     4     5 ar  
     9     4    27 1   
    10     5     6 ar  
    11     5    35 1   
    12     6    25 1   
    13     7     8 1   
    14     7    27 1   
    15     7    31 2   
    16     8     9 2   
    17     8    12 1   
    18     9    28 1   
    19     9    36 1   
    20    10    11 2   
    21    10    28 1   
    22    10    37 1   
    23    11    12 1   
    24    11    13 1   
    25    12    30 2   
    26    13    14 ar  
    27    13    23 ar  
    28    14    15 ar  
    29    14    38 1   
    30    15    16 ar  
    31    15    39 1   
    32    16    17 ar  
    33    16    24 1   
    34    17    23 ar  
    35    17    40 1   
    36    18    19 ar  
    37    18    26 ar  
    38    18    48 1   
    39    19    20 ar  
    40    19    32 1   
    41    20    21 ar  
    42    20    29 1   
    43    21    22 ar  
    44    21    41 1   
    45    22    26 ar  
    46    22    42 1   
    47    23    43 1   
    48    27    46 1   
    49    28    47 1   
    50    44    48 1   
    51    45    48 1   
@<TRIPOS>SUBSTRUCTURE
     1 E0X         1 TEMP              0 ****  ****    0 ROOT
