@<TRIPOS>MOLECULE
E0Y
   49    50     1     0     0
SMALL
No Charge or Current Charge


@<TRIPOS>ATOM
      1 O           26.9900   -11.7790   -24.5370 o          1 E0Y      -0.725500
      2 C11         30.3930   -10.9230   -24.0900 c5         1 E0Y       0.234800
      3 OXT         26.7980   -13.4220   -23.1860 o          1 E0Y      -0.725500
      4 CA          27.3150   -11.2480   -22.1970 c5         1 E0Y       0.033500
      5 N           26.1570   -10.8370   -21.3290 n7         1 E0Y      -0.834400
      6 CD          26.8050   -10.3800   -20.0900 c5         1 E0Y       0.168500
      7 C6          25.7780    -9.9690   -18.9860 c3         1 E0Y      -0.053700
      8 C7          25.0360    -8.6390   -19.3300 c3         1 E0Y       0.169600
      9 O14         24.2430    -8.7520   -20.5210 oh         1 E0Y      -0.642000
     10 CB          28.3290   -11.9150   -21.1970 c5         1 E0Y       0.112300
     11 CG          27.7020   -11.6170   -19.7970 c5         1 E0Y      -0.063400
     12 C10         30.5200   -11.8900   -22.8630 c5         1 E0Y       0.088300
     13 C13         32.6460   -10.7270   -23.0550 c5         1 E0Y       0.217800
     14 C14         32.0550   -12.1290   -22.7570 c5         1 E0Y      -0.080400
     15 C16         30.7810    -8.4740   -25.6030 c3         1 E0Y      -0.140400
     16 C           26.9980   -12.2310   -23.3990 c          1 E0Y       0.728000
     17 C8          26.4200    -9.9100   -17.5620 c3         1 E0Y       0.170300
     18 C9          27.5060    -8.8240   -17.3870 c3         1 E0Y      -0.129100
     19 N12         31.7430   -10.2870   -24.1450 nh         1 E0Y      -0.814600
     20 N15         33.0280    -8.4790   -24.6630 n2         1 E0Y      -0.894100
     21 O8          25.4080    -9.7040   -16.5700 oh         1 E0Y      -0.667000
     22 S2          29.9690   -11.0080   -21.2920 ss         1 E0Y      -0.516000
     23 H2          30.1770   -11.4720   -25.0170 h1         1 E0Y       0.071700
     24 HA          27.7580   -10.3380   -22.6250 h1         1 E0Y       0.019700
     25 H           25.6150   -10.0630   -21.7390 hn         1 E0Y       0.434000
     26 HD2         27.4360    -9.5050   -20.3020 h1         1 E0Y       0.002700
     27 H8          25.0160   -10.7550   -18.9370 hc         1 E0Y       0.092700
     28 H9          25.7730    -7.8350   -19.4540 h1         1 E0Y       0.012200
     29 H10         24.3830    -8.3560   -18.4940 h1         1 E0Y       0.012200
     30 H11         23.7470    -7.9090   -20.6140 ho         1 E0Y       0.428000
     31 HB2         28.4650   -12.9950   -21.3430 h1         1 E0Y       0.099700
     32 HG2         27.0990   -12.4660   -19.4520 hc         1 E0Y       0.038200
     33 HG3         28.4590   -11.4280   -19.0280 hc         1 E0Y       0.038200
     34 H15         29.9670   -12.8270   -23.0120 h1         1 E0Y       0.109700
     35 H16         33.6970   -10.7950   -23.3700 h1         1 E0Y       0.033200
     36 H17         32.5810   -10.0580   -22.1850 h1         1 E0Y       0.033200
     37 H18         32.3850   -12.8540   -23.5100 hc         1 E0Y       0.050700
     38 H19         32.3620   -12.5160   -21.7800 hc         1 E0Y       0.050700
     39 H20         30.4110    -9.2100   -26.3250 hc         1 E0Y       0.058367
     40 H21         29.9420    -8.1450   -24.9810 hc         1 E0Y       0.058367
     41 H22         31.1260    -7.6040   -26.1730 hc         1 E0Y       0.058367
     42 H23         26.8960   -10.8800   -17.3680 h1         1 E0Y       0.035700
     43 H24         27.9550    -8.8880   -16.3880 hc         1 E0Y       0.037033
     44 H25         28.3110    -8.9520   -18.1200 hc         1 E0Y       0.037033
     45 H26         27.0890    -7.8170   -17.5060 hc         1 E0Y       0.037033
     46 H27         33.6150    -9.0950   -24.0940 hn         1 E0Y       0.356400
     47 H28         25.8550    -9.7240   -15.6960 ho         1 E0Y       0.430000
     48 C15         31.8930    -9.0490   -24.7520 c2         1 E0Y       0.658200
     49 H1          29.5830   -10.2010   -23.9260 h1         1 E0Y       0.071700
@<TRIPOS>BOND
     1     1    16 1   
     2     2    12 1   
     3     2    19 1   
     4     2    23 1   
     5     2    49 1   
     6     3    16 1   
     7     4     5 1   
     8     4    10 1   
     9     4    16 1   
    10     4    24 1   
    11     5     6 1   
    12     5    25 1   
    13     6     7 1   
    14     6    11 1   
    15     6    26 1   
    16     7     8 1   
    17     7    17 1   
    18     7    27 1   
    19     8     9 1   
    20     8    28 1   
    21     8    29 1   
    22     9    30 1   
    23    10    11 1   
    24    10    22 1   
    25    10    31 1   
    26    11    32 1   
    27    11    33 1   
    28    12    14 1   
    29    12    22 1   
    30    12    34 1   
    31    13    14 1   
    32    13    19 1   
    33    13    35 1   
    34    13    36 1   
    35    14    37 1   
    36    14    38 1   
    37    15    39 1   
    38    15    40 1   
    39    15    41 1   
    40    15    48 1   
    41    17    18 1   
    42    17    21 1   
    43    17    42 1   
    44    18    43 1   
    45    18    44 1   
    46    18    45 1   
    47    19    48 1   
    48    20    46 1   
    49    20    48 2   
    50    21    47 1   
@<TRIPOS>SUBSTRUCTURE
     1 E0Y         1 TEMP              0 ****  ****    0 ROOT
