@<TRIPOS>MOLECULE
E0Y
   49    50     1     0     0
SMALL
bcc


@<TRIPOS>ATOM
      1 O           26.6690   -10.5640   -24.3020 o          1 E0Y      -0.830800
      2 C11         30.4910   -11.2130   -24.1070 c5         1 E0Y       0.234800
      3 OXT         27.3230   -12.5860   -23.6190 o          1 E0Y      -0.830800
      4 CA          27.5640   -10.7170   -22.1290 c5         1 E0Y       0.033500
      5 N           26.3690   -10.5030   -21.3220 n7         1 E0Y      -0.779200
      6 CD          26.8560   -10.1060   -20.0120 c5         1 E0Y       0.168500
      7 C6          25.7640   -10.0610   -18.9420 c3         1 E0Y      -0.053700
      8 C7          24.7390    -8.9570   -19.2080 c3         1 E0Y       0.146400
      9 O14         23.8740    -9.3480   -20.2560 oh         1 E0Y      -0.579800
     10 CB          28.4330   -11.5470   -21.1830 c5         1 E0Y       0.064400
     11 CG          27.9610   -11.1430   -19.7690 c5         1 E0Y      -0.063400
     12 C10         30.6370   -12.1100   -22.8840 c5         1 E0Y       0.040400
     13 C13         32.7730   -11.1050   -23.3360 c5         1 E0Y       0.217800
     14 C14         32.1320   -12.4210   -22.9040 c5         1 E0Y      -0.080400
     15 C16         30.7730    -8.7610   -25.5640 c3         1 E0Y      -0.140400
     16 C           27.1620   -11.3590   -23.4750 c          1 E0Y       0.938600
     17 C8          26.3620    -9.9270   -17.5340 c3         1 E0Y       0.147100
     18 C9          27.0760    -8.6050   -17.2820 c3         1 E0Y      -0.129100
     19 N12         31.7310   -10.4570   -24.1150 nh         1 E0Y      -0.814600
     20 N15         33.0290    -8.6100   -24.7620 n2         1 E0Y      -0.894100
     21 O8          25.3030   -10.1260   -16.6130 oh         1 E0Y      -0.604800
     22 S2          30.2220   -11.2680   -21.3230 ss         1 E0Y      -0.420200
     23 H2          30.3870   -11.8340   -25.0060 h1         1 E0Y       0.071700
     24 HA          28.0850    -9.7660   -22.3350 h1         1 E0Y       0.019700
     25 H           25.7590    -9.8090   -21.7330 hn         1 E0Y       0.378800
     26 HD2         27.3340    -9.1100   -20.0580 h1         1 E0Y       0.002700
     27 H8          25.2420   -11.0270   -18.9670 hc         1 E0Y       0.092700
     28 H9          25.2660    -8.0270   -19.4610 h1         1 E0Y       0.012200
     29 H10         24.1670    -8.7580   -18.2950 h1         1 E0Y       0.012200
     30 H11         23.2760    -8.6170   -20.4340 ho         1 E0Y       0.389000
     31 HB2         28.2550   -12.6070   -21.3570 h1         1 E0Y       0.099700
     32 HG2         27.5660   -12.0180   -19.2490 hc         1 E0Y       0.038200
     33 HG3         28.7640   -10.7410   -19.1480 hc         1 E0Y       0.038200
     34 H15         30.0180   -13.0030   -22.9600 h1         1 E0Y       0.109700
     35 H16         33.6760   -11.2720   -23.9300 h1         1 E0Y       0.033200
     36 H17         33.0600   -10.4920   -22.4740 h1         1 E0Y       0.033200
     37 H18         32.3170   -13.1910   -23.6560 hc         1 E0Y       0.050700
     38 H19         32.5170   -12.7870   -21.9540 hc         1 E0Y       0.050700
     39 H20         30.4080    -9.4980   -26.2810 hc         1 E0Y       0.058367
     40 H21         29.9340    -8.4980   -24.9170 hc         1 E0Y       0.058367
     41 H22         31.0780    -7.8700   -26.1050 hc         1 E0Y       0.058367
     42 H23         27.1000   -10.7300   -17.4110 h1         1 E0Y       0.035700
     43 H24         27.5150    -8.5950   -16.2820 hc         1 E0Y       0.037033
     44 H25         27.8900    -8.4530   -17.9910 hc         1 E0Y       0.037033
     45 H26         26.4000    -7.7520   -17.3570 hc         1 E0Y       0.037033
     46 H27         33.7430    -9.0510   -24.1910 hn         1 E0Y       0.356400
     47 H28         25.6590   -10.0330   -15.7240 ho         1 E0Y       0.391000
     48 C15         31.9370    -9.2860   -24.7700 c2         1 E0Y       0.658200
     49 H1          29.6210   -10.5610   -24.0560 h1         1 E0Y       0.071700
@<TRIPOS>BOND
     1     1    16 1   
     2     2    12 1   
     3     2    19 1   
     4     2    23 1   
     5     2    49 1   
     6     3    16 1   
     7     4     5 1   
     8     4    10 1   
     9     4    16 1   
    10     4    24 1   
    11     5     6 1   
    12     5    25 1   
    13     6     7 1   
    14     6    11 1   
    15     6    26 1   
    16     7     8 1   
    17     7    17 1   
    18     7    27 1   
    19     8     9 1   
    20     8    28 1   
    21     8    29 1   
    22     9    30 1   
    23    10    11 1   
    24    10    22 1   
    25    10    31 1   
    26    11    32 1   
    27    11    33 1   
    28    12    14 1   
    29    12    22 1   
    30    12    34 1   
    31    13    14 1   
    32    13    19 1   
    33    13    35 1   
    34    13    36 1   
    35    14    37 1   
    36    14    38 1   
    37    15    39 1   
    38    15    40 1   
    39    15    41 1   
    40    15    48 1   
    41    17    18 1   
    42    17    21 1   
    43    17    42 1   
    44    18    43 1   
    45    18    44 1   
    46    18    45 1   
    47    19    48 1   
    48    20    46 1   
    49    20    48 2   
    50    21    47 1   
@<TRIPOS>SUBSTRUCTURE
     1 E0Y         1 TEMP              0 ****  ****    0 ROOT
