@<TRIPOS>MOLECULE
E0Z
   62    66     1     0     0
SMALL
No Charge or Current Charge


@<TRIPOS>ATOM
      1 C10         -6.0080     1.5500    -0.5680 ca         1 E0Z      -0.079000
      2 C13         -4.9590    -2.0500    -0.4250 ca         1 E0Z      -0.134000
      3 C17         -1.3420     0.5860    -1.3700 c3         1 E0Z       0.064600
      4 C24          4.2430     0.2000    -0.1150 c          1 E0Z       0.605100
      5 C28          6.2520     1.5970    -0.6990 c3         1 E0Z       0.152300
      6 C01         -3.9930    -4.3000    -0.4950 ca         1 E0Z      -0.125000
      7 C02         -5.1540    -4.8180     0.0940 ca         1 E0Z      -0.088000
      8 C03         -6.2170    -3.9570     0.4110 ca         1 E0Z      -0.098000
      9 C04         -6.1360    -2.5750     0.1540 ca         1 E0Z       0.323000
     10 C06         -7.1440    -0.4700     0.2200 ca         1 E0Z       0.329000
     11 C07         -8.2600     0.3170     0.5510 ca         1 E0Z      -0.091000
     12 C08         -8.2590     1.6990     0.3260 ca         1 E0Z       0.137000
     13 C09         -7.1330     2.3180    -0.2310 ca         1 E0Z      -0.115000
     14 C11         -6.0070     0.1480    -0.3500 ca         1 E0Z      -0.156000
     15 C12         -4.8940    -0.6600    -0.6710 ca         1 E0Z       0.382000
     16 C14         -3.8940    -2.9250    -0.7570 ca         1 E0Z      -0.084000
     17 C16         -2.5020     0.1470    -0.4560 c3         1 E0Z       0.191800
     18 C18          0.8840    -0.1620    -0.3850 cc         1 E0Z      -0.182000
     19 C19          1.8150     0.5320     0.3320 cd         1 E0Z       0.214300
     20 C23          3.1140     0.0360     0.8920 c3         1 E0Z      -0.177700
     21 C29          7.5290     1.0250    -0.1010 ca         1 E0Z      -0.124300
     22 C30          7.9000    -0.3080    -0.3710 ca         1 E0Z      -0.135000
     23 C31          9.0830    -0.8450     0.1870 ca         1 E0Z       0.044100
     24 C32          9.8880    -0.0350     1.0140 ca         1 E0Z       0.127100
     25 C33          9.5190     1.2910     1.2850 ca         1 E0Z      -0.129000
     26 C34          8.3420     1.8210     0.7290 ca         1 E0Z      -0.096000
     27 C37          8.7320    -3.0550    -0.8710 c3         1 E0Z       0.155900
     28 N05         -7.1920    -1.7950     0.4630 nb         1 E0Z      -0.689000
     29 N20         -0.0850     0.7760    -0.6340 na         1 E0Z       0.121800
     30 N21          0.2360     1.9850    -0.0930 nc         1 E0Z      -0.203800
     31 N22          1.3930     1.8340     0.4940 nd         1 E0Z      -0.352000
     32 N26          5.0870     1.2590     0.1200 ns         1 E0Z      -0.501900
     33 N27         -3.7430    -0.0810    -1.2270 nu         1 E0Z      -0.955200
     34 O25          4.3820    -0.5540    -1.0680 o          1 E0Z      -0.608100
     35 O35         11.0310    -0.5480     1.5550 oh         1 E0Z      -0.534100
     36 O36          9.4900    -2.1490    -0.0460 os         1 E0Z      -0.369100
     37 Cl1         -9.6690     2.6610     0.7500 cl         1 E0Z      -0.194000
     38 H1          -5.1460     2.0600    -0.9900 ha         1 E0Z       0.106000
     39 H2          -1.1810    -0.1770    -2.1420 h1         1 E0Z       0.080200
     40 H3          -1.6030     1.5250    -1.8720 h1         1 E0Z       0.080200
     41 H4           6.3290     2.6900    -0.7640 h1         1 E0Z       0.063700
     42 H5           6.1140     1.2170    -1.7200 h1         1 E0Z       0.063700
     43 H6          -3.1700    -4.9640    -0.7510 ha         1 E0Z       0.114000
     44 H7          -5.2350    -5.8840     0.2980 ha         1 E0Z       0.118000
     45 H8          -7.1190    -4.3630     0.8590 ha         1 E0Z       0.134000
     46 H9          -9.1360    -0.1530     0.9870 ha         1 E0Z       0.149000
     47 H10         -7.1310     3.3920    -0.3990 ha         1 E0Z       0.132000
     48 H11         -2.9880    -2.5530    -1.2280 ha         1 E0Z       0.107000
     49 H12         -2.2060    -0.7730     0.0660 h1         1 E0Z       0.064200
     50 H13         -2.6710     0.9170     0.3100 h1         1 E0Z       0.064200
     51 H14          0.8410    -1.1900    -0.7190 h4         1 E0Z       0.171000
     52 H15          3.0120    -1.0270     1.1330 hc         1 E0Z       0.073200
     53 H16          3.3430     0.5970     1.8050 hc         1 E0Z       0.073200
     54 H17          7.2590    -0.9100    -1.0100 ha         1 E0Z       0.135000
     55 H18         10.1450     1.9090     1.9250 ha         1 E0Z       0.131000
     56 H19          8.0620     2.8500     0.9460 ha         1 E0Z       0.113000
     57 H20          9.2300    -4.0310    -0.9210 h1         1 E0Z       0.043367
     58 H21          7.7260    -3.2070    -0.4610 h1         1 E0Z       0.043367
     59 H22          8.6420    -2.6680    -1.8940 h1         1 E0Z       0.043367
     60 H23          4.8880     1.8320     0.9310 hn         1 E0Z       0.313500
     61 H24         -3.9730     0.6690    -1.8800 hn         1 E0Z       0.473000
     62 H25         11.0920    -1.4770     1.2400 ho         1 E0Z       0.482000
@<TRIPOS>BOND
     1     1    13 ar  
     2     1    14 ar  
     3     1    38 1   
     4     2     9 ar  
     5     2    15 ar  
     6     2    16 ar  
     7     3    17 1   
     8     3    29 1   
     9     3    39 1   
    10     3    40 1   
    11     4    20 1   
    12     4    32 1   
    13     4    34 2   
    14     5    21 1   
    15     5    32 1   
    16     5    41 1   
    17     5    42 1   
    18     6     7 ar  
    19     6    16 ar  
    20     6    43 1   
    21     7     8 ar  
    22     7    44 1   
    23     8     9 ar  
    24     8    45 1   
    25     9    28 ar  
    26    10    11 ar  
    27    10    14 ar  
    28    10    28 ar  
    29    11    12 ar  
    30    11    46 1   
    31    12    13 ar  
    32    12    37 1   
    33    13    47 1   
    34    14    15 ar  
    35    15    33 1   
    36    16    48 1   
    37    17    33 1   
    38    17    49 1   
    39    17    50 1   
    40    18    19 2   
    41    18    29 1   
    42    18    51 1   
    43    19    20 1   
    44    19    31 1   
    45    20    52 1   
    46    20    53 1   
    47    21    22 ar  
    48    21    26 ar  
    49    22    23 ar  
    50    22    54 1   
    51    23    24 ar  
    52    23    36 1   
    53    24    25 ar  
    54    24    35 1   
    55    25    26 ar  
    56    25    55 1   
    57    26    56 1   
    58    27    36 1   
    59    27    57 1   
    60    27    58 1   
    61    27    59 1   
    62    29    30 1   
    63    30    31 2   
    64    32    60 1   
    65    33    61 1   
    66    35    62 1   
@<TRIPOS>SUBSTRUCTURE
     1 E0Z         1 TEMP              0 ****  ****    0 ROOT
