@<TRIPOS>MOLECULE
E0Z
   62    66     1     0     0
SMALL
bcc


@<TRIPOS>ATOM
      1 C10         -6.3990     0.6310    -0.8380 ca         1 E0Z      -0.097000
      2 C13         -3.5490    -1.6780    -0.0360 ca         1 E0Z      -0.199300
      3 C17         -1.2500     1.2860    -1.5870 c3         1 E0Z       0.035300
      4 C24          4.2430     1.8040    -0.3010 c          1 E0Z       0.672100
      5 C28          6.6950     1.7400    -0.5380 c3         1 E0Z       0.152300
      6 C01         -1.5780    -3.0740     0.2220 ca         1 E0Z      -0.143000
      7 C02         -2.3320    -4.0040     0.9790 ca         1 E0Z      -0.106000
      8 C03         -3.6650    -3.8100     1.1720 ca         1 E0Z      -0.181300
      9 C04         -4.3260    -2.6640     0.6440 ca         1 E0Z       0.453600
     10 C06         -6.2780    -1.5440     0.2710 ca         1 E0Z       0.459600
     11 C07         -7.6960    -1.5060     0.4000 ca         1 E0Z      -0.174300
     12 C08         -8.3960    -0.4470    -0.0810 ca         1 E0Z       0.045400
     13 C09         -7.7530     0.6470    -0.7050 ca         1 E0Z      -0.133000
     14 C11         -5.6140    -0.4610    -0.3800 ca         1 E0Z      -0.221300
     15 C12         -4.2040    -0.5130    -0.5020 ca         1 E0Z       0.243600
     16 C14         -2.1720    -1.9500    -0.2680 ca         1 E0Z      -0.102000
     17 C16         -2.3300     1.1290    -0.5210 c3         1 E0Z       0.191800
     18 C18          0.9840     1.2580    -0.4480 cc         1 E0Z      -0.214600
     19 C19          1.8010     2.2800    -0.0380 cd         1 E0Z       0.279600
     20 C23          3.1200     2.2210     0.6390 c3         1 E0Z      -0.177700
     21 C29          7.2490     0.4360    -0.0240 ca         1 E0Z      -0.124300
     22 C30          6.6640    -0.7730    -0.4130 ca         1 E0Z      -0.153000
     23 C31          7.1410    -1.9780     0.0740 ca         1 E0Z       0.044100
     24 C32          8.2270    -1.9920     0.9680 ca         1 E0Z       0.127100
     25 C33          8.8070    -0.7960     1.3470 ca         1 E0Z      -0.147000
     26 C34          8.3200     0.4120     0.8530 ca         1 E0Z      -0.114000
     27 C37          5.5590    -3.2770    -1.1330 c3         1 E0Z       0.132700
     28 N05         -5.6480    -2.5910     0.7950 nb         1 E0Z      -0.689000
     29 N20         -0.0530     1.8790    -1.0340 na         1 E0Z       0.100400
     30 N21          0.0940     3.1910    -0.9860 nc         1 E0Z      -0.203800
     31 N22          1.2110     3.4410    -0.3940 nd         1 E0Z      -0.352000
     32 N26          5.4700     2.1390     0.1270 ns         1 E0Z      -0.568900
     33 N27         -3.5190     0.5140    -1.0840 nu         1 E0Z      -0.761600
     34 O25          4.0300     1.1990    -1.3410 o          1 E0Z      -0.608100
     35 O35          8.7150    -3.1510     1.4580 oh         1 E0Z      -0.495100
     36 O36          6.6510    -3.1970    -0.2380 os         1 E0Z      -0.345900
     37 CL1        -10.1190    -0.4040     0.0730 cl         1 E0Z      -0.102400
     38 H1          -5.9390     1.4920    -1.3050 ha         1 E0Z       0.124000
     39 H2          -0.9830     0.3270    -2.0280 h1         1 E0Z       0.080200
     40 H3          -1.5990     1.9290    -2.3940 h1         1 E0Z       0.080200
     41 H4           7.4250     2.5360    -0.3910 h1         1 E0Z       0.063700
     42 H5           6.5010     1.6810    -1.6090 h1         1 E0Z       0.063700
     43 H6          -0.5340    -3.2660     0.0170 ha         1 E0Z       0.132000
     44 H7          -1.8480    -4.8850     1.3800 ha         1 E0Z       0.136000
     45 H8          -4.2630    -4.5310     1.7140 ha         1 E0Z       0.152000
     46 H9          -8.1860    -2.3390     0.8860 ha         1 E0Z       0.167000
     47 H10         -8.3310     1.4880    -1.0630 ha         1 E0Z       0.150000
     48 H11         -1.5840    -1.2860    -0.8830 ha         1 E0Z       0.125000
     49 H12         -1.9660     0.5440     0.3210 h1         1 E0Z       0.064200
     50 H13         -2.5880     2.1150    -0.1260 h1         1 E0Z       0.064200
     51 H14          1.0650     0.1860    -0.3740 h4         1 E0Z       0.189000
     52 H15          3.0950     1.4920     1.4540 hc         1 E0Z       0.073200
     53 H16          3.3460     3.1860     1.0950 hc         1 E0Z       0.073200
     54 H17          5.8340    -0.7520    -1.1060 ha         1 E0Z       0.153000
     55 H18          9.6460    -0.8090     2.0320 ha         1 E0Z       0.149000
     56 H19          8.7890     1.3380     1.1620 ha         1 E0Z       0.131000
     57 H20          5.3210    -4.3330    -1.2380 h1         1 E0Z       0.043367
     58 H21          4.6800    -2.7540    -0.7480 h1         1 E0Z       0.043367
     59 H22          5.8110    -2.8710    -2.1160 h1         1 E0Z       0.043367
     60 H23          5.5580     2.5970     1.0200 hn         1 E0Z       0.313500
     61 H24         -4.0960     1.1890    -1.5590 hn         1 E0Z       0.417800
     62 H25          8.2020    -3.8960     1.1220 ho         1 E0Z       0.443000
@<TRIPOS>BOND
     1     1    13 ar  
     2     1    14 ar  
     3     1    38 1   
     4     2     9 ar  
     5     2    15 ar  
     6     2    16 ar  
     7     3    17 1   
     8     3    29 1   
     9     3    39 1   
    10     3    40 1   
    11     4    20 1   
    12     4    32 1   
    13     4    34 2   
    14     5    21 1   
    15     5    32 1   
    16     5    41 1   
    17     5    42 1   
    18     6     7 ar  
    19     6    16 ar  
    20     6    43 1   
    21     7     8 ar  
    22     7    44 1   
    23     8     9 ar  
    24     8    45 1   
    25     9    28 ar  
    26    10    11 ar  
    27    10    14 ar  
    28    10    28 ar  
    29    11    12 ar  
    30    11    46 1   
    31    12    13 ar  
    32    12    37 1   
    33    13    47 1   
    34    14    15 ar  
    35    15    33 1   
    36    16    48 1   
    37    17    33 1   
    38    17    49 1   
    39    17    50 1   
    40    18    19 2   
    41    18    29 1   
    42    18    51 1   
    43    19    20 1   
    44    19    31 1   
    45    20    52 1   
    46    20    53 1   
    47    21    22 ar  
    48    21    26 ar  
    49    22    23 ar  
    50    22    54 1   
    51    23    24 ar  
    52    23    36 1   
    53    24    25 ar  
    54    24    35 1   
    55    25    26 ar  
    56    25    55 1   
    57    26    56 1   
    58    27    36 1   
    59    27    57 1   
    60    27    58 1   
    61    27    59 1   
    62    29    30 1   
    63    30    31 2   
    64    32    60 1   
    65    33    61 1   
    66    35    62 1   
@<TRIPOS>SUBSTRUCTURE
     1 E0Z         1 TEMP              0 ****  ****    0 ROOT
