@<TRIPOS>MOLECULE
E10
   76    79     1     0     0
SMALL
No Charge or Current Charge


@<TRIPOS>ATOM
      1 C1          -0.6230     1.7260    11.6800 c          1 E10       0.553700
      2 N2           0.3010     0.7210    11.6560 ns         1 E10      -0.364600
      3 C3           0.5160    -0.1410    10.5970 cc         1 E10       0.078400
      4 C4          -0.2100    -0.0290     9.4170 cd         1 E10      -0.189700
      5 C5          -1.2350     0.9940     9.3590 cd         1 E10      -0.074000
      6 C6          -1.4130     1.8260    10.4500 cc         1 E10      -0.326700
      7 O7          -0.7670     2.4570    12.6460 o          1 E10      -0.567500
      8 C9           1.5730    -1.1940    10.8400 c6         1 E10      -0.052200
      9 C10          0.0050    -0.9800     8.2410 c6         1 E10       0.244200
     10 C13          1.2620    -1.8760     8.4250 c6         1 E10      -0.095900
     11 C14          1.3960    -2.3850     9.8740 c6         1 E10      -0.065900
     12 N17          0.1020    -0.2080     6.9860 n7         1 E10      -0.867400
     13 C24          0.0480    -0.9610     5.7190 c3         1 E10       0.161300
     14 C29         -0.7290    -1.7020   -11.6540 c          1 E10       0.553700
     15 N30          0.1930    -0.6940   -11.6850 ns         1 E10      -0.364600
     16 C31          0.4710     0.1650   -10.6380 cc         1 E10       0.078400
     17 C32         -0.1860     0.0500    -9.4200 cd         1 E10      -0.189700
     18 C33         -1.1920    -0.9830    -9.2960 cd         1 E10      -0.074000
     19 C34         -1.4350    -1.8130   -10.3750 cc         1 E10      -0.326700
     20 O35         -0.9310    -2.4300   -12.6120 o          1 E10      -0.567500
     21 C36          1.5310     1.2040   -10.9310 c6         1 E10      -0.052200
     22 C37          0.0920     0.9970    -8.2580 c6         1 E10       0.244200
     23 C38          1.3970     1.8120    -8.4720 c6         1 E10      -0.095900
     24 C39          1.4800     2.3630    -9.9110 c6         1 E10      -0.065900
     25 N40          0.1460     0.2310    -6.9980 n7         1 E10      -0.867400
     26 C41          0.2040     0.9840    -5.7320 c3         1 E10       0.161300
     27 C63          0.1180     0.0100     4.5230 c3         1 E10      -0.080400
     28 C64          0.0680    -0.7140     3.1590 c3         1 E10      -0.073900
     29 C65          0.1390     0.2530     1.9570 c3         1 E10      -0.074400
     30 C66          0.0900    -0.4720     0.5950 c3         1 E10      -0.074400
     31 C67          0.1610     0.4950    -0.6070 c3         1 E10      -0.074400
     32 C68          0.1110    -0.2300    -1.9700 c3         1 E10      -0.074400
     33 C69          0.1820     0.7380    -3.1720 c3         1 E10      -0.073900
     34 C70          0.1330     0.0140    -4.5360 c3         1 E10      -0.080400
     35 H2           0.8540     0.6240    12.4980 hn         1 E10       0.321500
     36 H5          -1.8640     1.1120     8.4790 ha         1 E10       0.189500
     37 H6          -2.1630     2.6080    10.4510 ha         1 E10       0.208000
     38 H9C1         2.5720    -0.7580    10.7020 hc         1 E10       0.059700
     39 H9C2         1.5390    -1.5610    11.8750 hc         1 E10       0.059700
     40 H10         -0.8760    -1.6370     8.1840 h1         1 E10       0.043700
     41 H131         1.2150    -2.7320     7.7380 hc         1 E10       0.050700
     42 H132         2.1670    -1.3120     8.1580 hc         1 E10       0.050700
     43 H141         0.5030    -2.9630    10.1500 hc         1 E10       0.049450
     44 H142         2.2540    -3.0670     9.9600 hc         1 E10       0.049450
     45 H17         -0.6670     0.4670     6.9740 hn         1 E10       0.412000
     46 H241         0.8860    -1.6670     5.6510 h1         1 E10       0.028450
     47 H242        -0.8850    -1.5380     5.6580 h1         1 E10       0.028450
     48 H33         -1.7480    -1.1060    -8.3670 ha         1 E10       0.189500
     49 H34         -2.1760    -2.6030   -10.3280 ha         1 E10       0.208000
     50 H361         1.4190     1.6110   -11.9460 hc         1 E10       0.059700
     51 H362         2.5260     0.7370   -10.8970 hc         1 E10       0.059700
     52 H37         -0.7460     1.7080    -8.1980 h1         1 E10       0.043700
     53 H381         1.4400     2.6460    -7.7590 hc         1 E10       0.050700
     54 H382         2.2740     1.1810    -8.2740 hc         1 E10       0.050700
     55 H391         0.6080     3.0010   -10.1140 hc         1 E10       0.049450
     56 H392         2.3680     3.0000   -10.0230 hc         1 E10       0.049450
     57 H40          0.9520    -0.4010    -7.0420 hn         1 E10       0.412000
     58 H411        -0.6360     1.6890    -5.6700 h1         1 E10       0.028450
     59 H412         1.1360     1.5620    -5.6660 h1         1 E10       0.028450
     60 H631        -0.7160     0.7200     4.5840 hc         1 E10       0.045950
     61 H632         1.0450     0.5930     4.5870 hc         1 E10       0.045950
     62 H641         0.9020    -1.4250     3.0990 hc         1 E10       0.037700
     63 H642        -0.8570    -1.3000     3.0970 hc         1 E10       0.037700
     64 H651        -0.6940     0.9640     2.0180 hc         1 E10       0.038700
     65 H652         1.0650     0.8390     2.0200 hc         1 E10       0.038700
     66 H661         0.9230    -1.1830     0.5340 hc         1 E10       0.037700
     67 H662        -0.8360    -1.0570     0.5310 hc         1 E10       0.037700
     68 H671        -0.6730     1.2060    -0.5470 hc         1 E10       0.037700
     69 H672         1.0870     1.0810    -0.5440 hc         1 E10       0.037700
     70 H681         0.9450    -0.9410    -2.0300 hc         1 E10       0.038700
     71 H682        -0.8150    -0.8150    -2.0330 hc         1 E10       0.038700
     72 H691        -0.6510     1.4490    -3.1120 hc         1 E10       0.037700
     73 H692         1.1080     1.3230    -3.1090 hc         1 E10       0.037700
     74 H701         0.9670    -0.6970    -4.5970 hc         1 E10       0.045950
     75 H702        -0.7940    -0.5700    -4.6000 hc         1 E10       0.045950
     76 H30          0.6930    -0.5940   -12.5580 hn         1 E10       0.321500
@<TRIPOS>BOND
     1     1     2 1   
     2     1     6 1   
     3     1     7 2   
     4     2     3 1   
     5     2    35 1   
     6     3     4 2   
     7     3     8 1   
     8     4     5 1   
     9     4     9 1   
    10     5     6 2   
    11     5    36 1   
    12     6    37 1   
    13     8    11 1   
    14     8    38 1   
    15     8    39 1   
    16     9    10 1   
    17     9    12 1   
    18     9    40 1   
    19    10    11 1   
    20    10    41 1   
    21    10    42 1   
    22    11    43 1   
    23    11    44 1   
    24    12    13 1   
    25    12    45 1   
    26    13    27 1   
    27    13    46 1   
    28    13    47 1   
    29    14    15 1   
    30    14    19 1   
    31    14    20 2   
    32    15    16 1   
    33    15    76 1   
    34    16    17 2   
    35    16    21 1   
    36    17    18 1   
    37    17    22 1   
    38    18    19 2   
    39    18    48 1   
    40    19    49 1   
    41    21    24 1   
    42    21    50 1   
    43    21    51 1   
    44    22    23 1   
    45    22    25 1   
    46    22    52 1   
    47    23    24 1   
    48    23    53 1   
    49    23    54 1   
    50    24    55 1   
    51    24    56 1   
    52    25    26 1   
    53    25    57 1   
    54    26    34 1   
    55    26    58 1   
    56    26    59 1   
    57    27    28 1   
    58    27    60 1   
    59    27    61 1   
    60    28    29 1   
    61    28    62 1   
    62    28    63 1   
    63    29    30 1   
    64    29    64 1   
    65    29    65 1   
    66    30    31 1   
    67    30    66 1   
    68    30    67 1   
    69    31    32 1   
    70    31    68 1   
    71    31    69 1   
    72    32    33 1   
    73    32    70 1   
    74    32    71 1   
    75    33    34 1   
    76    33    72 1   
    77    33    73 1   
    78    34    74 1   
    79    34    75 1   
@<TRIPOS>SUBSTRUCTURE
     1 E10         1 TEMP              0 ****  ****    0 ROOT
