@<TRIPOS>MOLECULE
E10
   76    79     1     0     0
SMALL
bcc


@<TRIPOS>ATOM
      1 C1          -1.2180     1.5060    11.5090 c          1 E10       0.696200
      2 N2          -0.2100     0.5640    11.5270 ns         1 E10      -0.431600
      3 C3           0.1920    -0.2170    10.4900 cc         1 E10       0.078400
      4 C4          -0.4190    -0.0980     9.2740 cd         1 E10      -0.189700
      5 C5          -1.5000     0.8200     9.1940 cd         1 E10      -0.024000
      6 C6          -1.8890     1.5920    10.2430 cc         1 E10      -0.276700
      7 O7          -1.4760     2.1660    12.5140 o          1 E10      -0.643000
      8 C9           1.2880    -1.1920    10.7790 c6         1 E10      -0.052200
      9 C10         -0.0120    -0.9300     8.0750 c6         1 E10       0.244200
     10 C13          1.2850    -1.6940     8.3410 c6         1 E10      -0.095900
     11 C14          1.3120    -2.2960     9.7350 c6         1 E10      -0.065900
     12 N17          0.1470    -0.0740     6.9030 n7         1 E10      -0.812200
     13 C24          0.2720    -0.8110     5.6560 c3         1 E10       0.161300
     14 C29         -1.4850    -1.4890   -11.3150 c          1 E10       0.696200
     15 N30         -0.4870    -0.5520   -11.4910 ns         1 E10      -0.431600
     16 C31          0.0810     0.2180   -10.5260 cc         1 E10       0.078400
     17 C32         -0.3270     0.0870    -9.2300 cd         1 E10      -0.189700
     18 C33         -1.3580    -0.8510    -8.9710 cd         1 E10      -0.024000
     19 C34         -1.9200    -1.6070    -9.9520 cc         1 E10      -0.276700
     20 O35         -1.9200    -2.1270   -12.2730 o          1 E10      -0.643000
     21 C36          1.1460     1.1700   -10.9750 c6         1 E10      -0.052200
     22 C37          0.2610     0.9200    -8.1090 c6         1 E10       0.244200
     23 C38          1.5780     1.5660    -8.5450 c6         1 E10      -0.095900
     24 C39          1.4420     2.2190    -9.9120 c6         1 E10      -0.065900
     25 N40          0.3520     0.1160    -6.9030 n7         1 E10      -0.812200
     26 C41          0.5310     0.8660    -5.6740 c3         1 E10       0.161300
     27 C63          0.2870     0.1320     4.4640 c3         1 E10      -0.080400
     28 C64          0.4040    -0.6070     3.1370 c3         1 E10      -0.073900
     29 C65          0.4280     0.3260     1.9320 c3         1 E10      -0.074400
     30 C66          0.5090    -0.4140     0.6040 c3         1 E10      -0.074400
     31 C67          0.5310     0.5140    -0.6050 c3         1 E10      -0.074400
     32 C68          0.5510    -0.2320    -1.9330 c3         1 E10      -0.074400
     33 C69          0.5750     0.6940    -3.1440 c3         1 E10      -0.073900
     34 C70          0.5010    -0.0580    -4.4660 c3         1 E10      -0.080400
     35 H2           0.2660     0.4460    12.4130 hn         1 E10       0.321500
     36 H5          -2.0550     0.9080     8.2670 ha         1 E10       0.139500
     37 H6          -2.7190     2.2800    10.1530 ha         1 E10       0.158000
     38 H9C1         2.2470    -0.6620    10.7900 hc         1 E10       0.059700
     39 H9C2         1.1540    -1.6050    11.7820 hc         1 E10       0.059700
     40 H10         -0.8100    -1.6760     7.9060 h1         1 E10       0.043700
     41 H131         1.4120    -2.4780     7.5930 hc         1 E10       0.050700
     42 H132         2.1240    -1.0000     8.2230 hc         1 E10       0.050700
     43 H141         0.4520    -2.9570     9.8760 hc         1 E10       0.049450
     44 H142         2.2040    -2.9100     9.8660 hc         1 E10       0.049450
     45 H17         -0.6620     0.5280     6.8140 hn         1 E10       0.356800
     46 H241         1.2060    -1.3800     5.6660 h1         1 E10       0.028450
     47 H242        -0.5360    -1.5500     5.5260 h1         1 E10       0.028450
     48 H33         -1.6940    -0.9680    -7.9480 ha         1 E10       0.139500
     49 H34         -2.7080    -2.3140    -9.7320 ha         1 E10       0.158000
     50 H361         0.8440     1.6400   -11.9140 hc         1 E10       0.059700
     51 H362         2.0540     0.5980   -11.1980 hc         1 E10       0.059700
     52 H37         -0.4510     1.7260    -7.8860 h1         1 E10       0.043700
     53 H381         1.8950     2.3000    -7.8030 hc         1 E10       0.050700
     54 H382         2.3570     0.7940    -8.5850 hc         1 E10       0.050700
     55 H391         0.6360     2.9580    -9.8880 hc         1 E10       0.049450
     56 H392         2.3530     2.7570   -10.1770 hc         1 E10       0.049450
     57 H40          1.1030    -0.5580    -7.0060 hn         1 E10       0.356800
     58 H411        -0.2920     1.5850    -5.5950 h1         1 E10       0.028450
     59 H412         1.4580     1.4600    -5.6490 h1         1 E10       0.028450
     60 H631        -0.6310     0.7330     4.4640 hc         1 E10       0.045950
     61 H632         1.1180     0.8360     4.5720 hc         1 E10       0.045950
     62 H641         1.3120    -1.2200     3.1390 hc         1 E10       0.037700
     63 H642        -0.4330    -1.3060     3.0340 hc         1 E10       0.037700
     64 H651        -0.4700     0.9550     1.9420 hc         1 E10       0.038700
     65 H652         1.2780     1.0120     2.0210 hc         1 E10       0.038700
     66 H661         1.4030    -1.0480     0.5920 hc         1 E10       0.037700
     67 H662        -0.3450    -1.0960     0.5180 hc         1 E10       0.037700
     68 H671        -0.3460     1.1700    -0.5720 hc         1 E10       0.037700
     69 H672         1.4040     1.1740    -0.5410 hc         1 E10       0.037700
     70 H681         1.4210    -0.8970    -1.9670 hc         1 E10       0.038700
     71 H682        -0.3290    -0.8820    -1.9930 hc         1 E10       0.038700
     72 H691        -0.2660     1.3920    -3.0790 hc         1 E10       0.037700
     73 H692         1.4820     1.3080    -3.1150 hc         1 E10       0.037700
     74 H701         1.3340    -0.7680    -4.5310 hc         1 E10       0.045950
     75 H702        -0.4160    -0.6540    -4.5010 hc         1 E10       0.045950
     76 H30         -0.1590    -0.4320   -12.4420 hn         1 E10       0.321500
@<TRIPOS>BOND
     1     1     2 1   
     2     1     6 1   
     3     1     7 2   
     4     2     3 1   
     5     2    35 1   
     6     3     4 2   
     7     3     8 1   
     8     4     5 1   
     9     4     9 1   
    10     5     6 2   
    11     5    36 1   
    12     6    37 1   
    13     8    11 1   
    14     8    38 1   
    15     8    39 1   
    16     9    10 1   
    17     9    12 1   
    18     9    40 1   
    19    10    11 1   
    20    10    41 1   
    21    10    42 1   
    22    11    43 1   
    23    11    44 1   
    24    12    13 1   
    25    12    45 1   
    26    13    27 1   
    27    13    46 1   
    28    13    47 1   
    29    14    15 1   
    30    14    19 1   
    31    14    20 2   
    32    15    16 1   
    33    15    76 1   
    34    16    17 2   
    35    16    21 1   
    36    17    18 1   
    37    17    22 1   
    38    18    19 2   
    39    18    48 1   
    40    19    49 1   
    41    21    24 1   
    42    21    50 1   
    43    21    51 1   
    44    22    23 1   
    45    22    25 1   
    46    22    52 1   
    47    23    24 1   
    48    23    53 1   
    49    23    54 1   
    50    24    55 1   
    51    24    56 1   
    52    25    26 1   
    53    25    57 1   
    54    26    34 1   
    55    26    58 1   
    56    26    59 1   
    57    27    28 1   
    58    27    60 1   
    59    27    61 1   
    60    28    29 1   
    61    28    62 1   
    62    28    63 1   
    63    29    30 1   
    64    29    64 1   
    65    29    65 1   
    66    30    31 1   
    67    30    66 1   
    68    30    67 1   
    69    31    32 1   
    70    31    68 1   
    71    31    69 1   
    72    32    33 1   
    73    32    70 1   
    74    32    71 1   
    75    33    34 1   
    76    33    72 1   
    77    33    73 1   
    78    34    74 1   
    79    34    75 1   
@<TRIPOS>SUBSTRUCTURE
     1 E10         1 TEMP              0 ****  ****    0 ROOT
