@<TRIPOS>MOLECULE
E11
   73    76     1     0     0
SMALL
abcg2


@<TRIPOS>ATOM
      1 N1          -1.0150    -0.3760    -0.2300 nb         1 E11      -0.341000
      2 C2          -2.3540    -0.5070    -0.1290 ca         1 E11       0.420900
      3 N3          -3.2320     0.4610     0.0110 nb         1 E11      -0.291000
      4 C4          -2.7320     1.7200     0.0190 ca         1 E11       0.115000
      5 C5          -1.3610     1.9940    -0.0950 ca         1 E11      -0.220000
      6 C6          -0.5100     0.8380    -0.2060 ca         1 E11       0.439900
      7 CAC         -3.6300     2.8040     0.1440 ca         1 E11      -0.204000
      8 CAD         -3.1790     4.1000     0.1460 ca         1 E11       0.164100
      9 CAE         -1.7830     4.3730     0.0200 ca         1 E11       0.085100
     10 CAF         -0.9040     3.3300    -0.0980 ca         1 E11      -0.131000
     11 OAK         -1.4550     5.6790     0.0240 os         1 E11      -0.320100
     12 OAL         -3.9540     5.1850     0.2550 os         1 E11      -0.318100
     13 NAM          0.8210     0.9800    -0.3060 nu         1 E11      -0.924100
     14 NAN         -2.8050    -1.7830    -0.1920 nu         1 E11      -0.919100
     15 CAO         -4.1660    -2.1460     0.1190 c3         1 E11       0.231800
     16 CAP         -4.4040    -3.6210    -0.1690 c3         1 E11      -0.096400
     17 CAQ         -5.8260    -4.0230     0.1940 c3         1 E11       0.168800
     18 NAR         -6.0830    -5.4440     0.0490 n3         1 E11      -0.713600
     19 CAS         -7.3370    -5.8070     0.6740 c3         1 E11       0.149600
     20 CAU         -6.0630    -5.8720    -1.3340 c3         1 E11       0.149600
     21 CAV          1.7630    -0.1200    -0.3350 c6         1 E11       0.236500
     22 CAW          2.0350    -0.6970     1.0530 c6         1 E11      -0.093400
     23 CAX          3.1050    -1.7750     0.9880 c6         1 E11       0.170300
     24 NAY          4.3330    -1.2530     0.4150 n3         1 E11      -0.724600
     25 CAZ          4.1090    -0.7600    -0.9320 c6         1 E11       0.170300
     26 CBA          3.0740     0.3510    -0.9520 c6         1 E11      -0.093400
     27 CBB          5.4040    -2.2250     0.4550 c3         1 E11       0.215100
     28 CBC          6.7560    -1.6080     0.2020 ca         1 E11      -0.088300
     29 CBD          7.1140    -0.4080     0.8130 ca         1 E11      -0.099000
     30 CBE          8.3720     0.1410     0.6130 ca         1 E11      -0.114500
     31 CBF          9.2950    -0.5030    -0.2040 ca         1 E11      -0.109000
     32 CBG          8.9460    -1.6960    -0.8210 ca         1 E11      -0.114500
     33 CBH          7.6830    -2.2410    -0.6200 ca         1 E11      -0.099000
     34 CBI         -5.3540     5.0010     0.3520 c3         1 E11       0.142900
     35 CBJ         -0.0870     6.0150    -0.0730 c3         1 E11       0.145900
     36 HAC         -4.6830     2.5740     0.2370 ha         1 E11       0.137000
     37 HAF          0.1510     3.5390    -0.2080 ha         1 E11       0.108000
     38 HNAM         1.2140     1.8910    -0.1390 hn         1 E11       0.489000
     39 HNAN        -2.0990    -2.4960    -0.1040 hn         1 E11       0.493000
     40 HAO         -4.4050    -1.9300     1.1680 h1         1 E11       0.049200
     41 HAOA        -4.8450    -1.5390    -0.4840 h1         1 E11       0.049200
     42 HAP         -4.1970    -3.8130    -1.2250 hc         1 E11       0.052200
     43 HAPA        -3.7050    -4.2310     0.4130 hc         1 E11       0.052200
     44 HAQ         -6.0000    -3.7590     1.2420 h1         1 E11       0.031700
     45 HAQA        -6.5400    -3.4220    -0.3990 h1         1 E11       0.031700
     46 HAS         -8.2110    -5.3160     0.2180 h1         1 E11       0.030533
     47 HASA        -7.4910    -6.8850     0.6020 h1         1 E11       0.030533
     48 HASB        -7.3220    -5.5430     1.7320 h1         1 E11       0.030533
     49 HAU         -5.0880    -5.6900    -1.7860 h1         1 E11       0.030533
     50 HAUA        -6.2540    -6.9440    -1.3920 h1         1 E11       0.030533
     51 HAUB        -6.8200    -5.3640    -1.9540 h1         1 E11       0.030533
     52 HAV          1.3400    -0.9070    -0.9650 h1         1 E11       0.080700
     53 HAW          2.3700     0.1080     1.7140 hc         1 E11       0.053700
     54 HAWA         1.1180    -1.1130     1.4740 hc         1 E11       0.053700
     55 HAX          3.3160    -2.1410     1.9950 h1         1 E11       0.036450
     56 HAXA         2.7250    -2.6370     0.4110 h1         1 E11       0.036450
     57 HAZ          5.0500    -0.3830    -1.3360 h1         1 E11       0.036450
     58 HAZA         3.7840    -1.5780    -1.6010 h1         1 E11       0.036450
     59 HBA          2.9130     0.6820    -1.9800 hc         1 E11       0.053700
     60 HBAA         3.4550     1.2090    -0.3870 hc         1 E11       0.053700
     61 HBB          5.4080    -2.6810     1.4500 h1         1 E11       0.038700
     62 HBBA         5.2430    -3.0520    -0.2580 h1         1 E11       0.038700
     63 HBD          6.3940     0.1020     1.4410 ha         1 E11       0.117000
     64 HBE          8.6350     1.0740     1.0940 ha         1 E11       0.111000
     65 HBF         10.2770    -0.0740    -0.3610 ha         1 E11       0.111000
     66 HBG          9.6530    -2.2010    -1.4670 ha         1 E11       0.111000
     67 HBH          7.4150    -3.1690    -1.1110 ha         1 E11       0.117000
     68 HBI         -5.7920     5.9950     0.4030 h1         1 E11       0.043367
     69 HBIA        -5.7550     4.4810    -0.5220 h1         1 E11       0.043367
     70 HBIB        -5.6300     4.4460     1.2520 h1         1 E11       0.043367
     71 HBJ          0.4910     5.6130     0.7630 h1         1 E11       0.038367
     72 HBJA         0.3560     5.6620    -1.0080 h1         1 E11       0.038367
     73 HBJB        -0.0310     7.1000    -0.0470 h1         1 E11       0.038367
@<TRIPOS>BOND
     1     1     2 ar  
     2     1     6 ar  
     3     2     3 ar  
     4     2    14 1   
     5     3     4 ar  
     6     4     5 ar  
     7     4     7 ar  
     8     5     6 ar  
     9     5    10 ar  
    10     6    13 1   
    11     7     8 ar  
    12     7    36 1   
    13     8     9 ar  
    14     8    12 1   
    15     9    10 ar  
    16     9    11 1   
    17    10    37 1   
    18    11    35 1   
    19    12    34 1   
    20    13    21 1   
    21    13    38 1   
    22    14    15 1   
    23    14    39 1   
    24    15    16 1   
    25    15    40 1   
    26    15    41 1   
    27    16    17 1   
    28    16    42 1   
    29    16    43 1   
    30    17    18 1   
    31    17    44 1   
    32    17    45 1   
    33    18    19 1   
    34    18    20 1   
    35    19    46 1   
    36    19    47 1   
    37    19    48 1   
    38    20    49 1   
    39    20    50 1   
    40    20    51 1   
    41    21    22 1   
    42    21    26 1   
    43    21    52 1   
    44    22    23 1   
    45    22    53 1   
    46    22    54 1   
    47    23    24 1   
    48    23    55 1   
    49    23    56 1   
    50    24    25 1   
    51    24    27 1   
    52    25    26 1   
    53    25    57 1   
    54    25    58 1   
    55    26    59 1   
    56    26    60 1   
    57    27    28 1   
    58    27    61 1   
    59    27    62 1   
    60    28    29 ar  
    61    28    33 ar  
    62    29    30 ar  
    63    29    63 1   
    64    30    31 ar  
    65    30    64 1   
    66    31    32 ar  
    67    31    65 1   
    68    32    33 ar  
    69    32    66 1   
    70    33    67 1   
    71    34    68 1   
    72    34    69 1   
    73    34    70 1   
    74    35    71 1   
    75    35    72 1   
    76    35    73 1   
@<TRIPOS>SUBSTRUCTURE
     1 E11         1 TEMP              0 ****  ****    0 ROOT
