@<TRIPOS>MOLECULE
E11
   73    76     1     0     0
SMALL
No Charge or Current Charge


@<TRIPOS>ATOM
      1 N1          -1.1220    -0.3290    -0.3790 nb         1 E11      -0.341000
      2 C2          -2.4410    -0.4230    -0.2000 ca         1 E11       0.420900
      3 N3          -3.3060     0.5860    -0.0010 nb         1 E11      -0.291000
      4 C4          -2.8020     1.8340     0.0230 ca         1 E11       0.115000
      5 C5          -1.4160     2.0520    -0.1550 ca         1 E11      -0.220000
      6 C6          -0.6050     0.9090    -0.3560 ca         1 E11       0.439900
      7 CAC         -3.6550     2.9300     0.2270 ca         1 E11      -0.204000
      8 CAD         -3.1480     4.2470     0.2570 ca         1 E11       0.164100
      9 CAE         -1.7630     4.4700     0.0800 ca         1 E11       0.085100
     10 CAF         -0.8990     3.3700    -0.1260 ca         1 E11      -0.131000
     11 OAK         -1.2920     5.7740     0.1150 os         1 E11      -0.320100
     12 OAL         -3.9730     5.3420     0.4570 os         1 E11      -0.318100
     13 NAM          0.7740     1.0080    -0.5430 nu         1 E11      -0.924100
     14 NAN         -2.9440    -1.7110    -0.2270 nu         1 E11      -0.919100
     15 CAO         -4.3440    -2.1270    -0.0540 c3         1 E11       0.231800
     16 CAP         -4.4740    -3.6570    -0.1600 c3         1 E11      -0.096400
     17 CAQ         -5.9330    -4.1320     0.0170 c3         1 E11       0.168800
     18 NAR         -6.1080    -5.6060     0.0740 n3         1 E11      -0.713600
     19 CAS         -7.4790    -5.9870     0.4830 c3         1 E11       0.149600
     20 CAU         -5.6860    -6.3110    -1.1610 c3         1 E11       0.149600
     21 CAV          1.7450    -0.0940    -0.4120 c6         1 E11       0.236500
     22 CAW          1.9670    -0.4440     1.0770 c6         1 E11      -0.093400
     23 CAX          3.0550    -1.5320     1.2200 c6         1 E11       0.170300
     24 NAY          4.3330    -1.1140     0.5820 n3         1 E11      -0.724600
     25 CAZ          4.1460    -0.7860    -0.8600 c6         1 E11       0.170300
     26 CBA          3.0860     0.3210    -1.0540 c6         1 E11      -0.093400
     27 CBB          5.4180    -2.0990     0.8150 c3         1 E11       0.215100
     28 CBC          6.7890    -1.6170     0.3470 ca         1 E11      -0.088300
     29 CBD          7.4210    -0.5400     1.0000 ca         1 E11      -0.099000
     30 CBE          8.6840    -0.0930     0.5730 ca         1 E11      -0.114500
     31 CBF          9.3240    -0.7200    -0.5090 ca         1 E11      -0.109000
     32 CBG          8.6990    -1.7950    -1.1640 ca         1 E11      -0.114500
     33 CBH          7.4360    -2.2430    -0.7380 ca         1 E11      -0.099000
     34 CBI         -5.3940     5.2170     0.6470 c3         1 E11       0.142900
     35 CBJ          0.0980     6.1030    -0.0540 c3         1 E11       0.145900
     36 HAC         -4.7140     2.7370     0.3610 ha         1 E11       0.137000
     37 HAF          0.1640     3.5360    -0.2620 ha         1 E11       0.108000
     38 HNAM         1.1350     1.9580    -0.5360 hn         1 E11       0.489000
     39 HNAN        -2.2470    -2.4390    -0.3800 hn         1 E11       0.493000
     40 HAO         -4.7130    -1.8000     0.9290 h1         1 E11       0.049200
     41 HAOA        -4.9730    -1.6570    -0.8230 h1         1 E11       0.049200
     42 HAP         -4.0950    -3.9770    -1.1380 hc         1 E11       0.052200
     43 HAPA        -3.8490    -4.1290     0.6080 hc         1 E11       0.052200
     44 HAQ         -6.3110    -3.6920     0.9500 h1         1 E11       0.031700
     45 HAQA        -6.5390    -3.7160    -0.8000 h1         1 E11       0.031700
     46 HAS         -8.2150    -5.6640    -0.2660 h1         1 E11       0.030533
     47 HASA        -7.5620    -7.0760     0.6000 h1         1 E11       0.030533
     48 HASB        -7.7410    -5.5240     1.4440 h1         1 E11       0.030533
     49 HAU         -4.6190    -6.1550    -1.3650 h1         1 E11       0.030533
     50 HAUA        -5.8450    -7.3940    -1.0620 h1         1 E11       0.030533
     51 HAUB        -6.2610    -5.9590    -2.0280 h1         1 E11       0.030533
     52 HAV          1.3850    -0.9920    -0.9400 h1         1 E11       0.080700
     53 HAW          2.2710     0.4520     1.6360 hc         1 E11       0.053700
     54 HAWA         1.0330    -0.7990     1.5300 hc         1 E11       0.053700
     55 HAX          3.2100    -1.7330     2.2900 h1         1 E11       0.036450
     56 HAXA         2.6900    -2.4660     0.7660 h1         1 E11       0.036450
     57 HAZ          5.0900    -0.4390    -1.3050 h1         1 E11       0.036450
     58 HAZA         3.8370    -1.6830    -1.4170 h1         1 E11       0.036450
     59 HBA          2.9470     0.5140    -2.1260 hc         1 E11       0.053700
     60 HBAA         3.4510     1.2550    -0.6050 hc         1 E11       0.053700
     61 HBB          5.4910    -2.3200     1.8880 h1         1 E11       0.038700
     62 HBBA         5.1770    -3.0460     0.3130 h1         1 E11       0.038700
     63 HBD          6.9280    -0.0480     1.8350 ha         1 E11       0.117000
     64 HBE          9.1650     0.7400     1.0810 ha         1 E11       0.111000
     65 HBF         10.3010    -0.3740    -0.8390 ha         1 E11       0.111000
     66 HBG          9.1930    -2.2810    -2.0030 ha         1 E11       0.111000
     67 HBH          6.9600    -3.0740    -1.2530 ha         1 E11       0.117000
     68 HBI         -5.8470     6.2060     0.7860 h1         1 E11       0.043367
     69 HBIA        -5.8640     4.7480    -0.2270 h1         1 E11       0.043367
     70 HBIB        -5.6170     4.6130     1.5350 h1         1 E11       0.043367
     71 HBJ          0.7080     5.6330     0.7290 h1         1 E11       0.038367
     72 HBJA         0.4620     5.7700    -1.0340 h1         1 E11       0.038367
     73 HBJB         0.2420     7.1890     0.0100 h1         1 E11       0.038367
@<TRIPOS>BOND
     1     1     2 ar  
     2     1     6 ar  
     3     2     3 ar  
     4     2    14 1   
     5     3     4 ar  
     6     4     5 ar  
     7     4     7 ar  
     8     5     6 ar  
     9     5    10 ar  
    10     6    13 1   
    11     7     8 ar  
    12     7    36 1   
    13     8     9 ar  
    14     8    12 1   
    15     9    10 ar  
    16     9    11 1   
    17    10    37 1   
    18    11    35 1   
    19    12    34 1   
    20    13    21 1   
    21    13    38 1   
    22    14    15 1   
    23    14    39 1   
    24    15    16 1   
    25    15    40 1   
    26    15    41 1   
    27    16    17 1   
    28    16    42 1   
    29    16    43 1   
    30    17    18 1   
    31    17    44 1   
    32    17    45 1   
    33    18    19 1   
    34    18    20 1   
    35    19    46 1   
    36    19    47 1   
    37    19    48 1   
    38    20    49 1   
    39    20    50 1   
    40    20    51 1   
    41    21    22 1   
    42    21    26 1   
    43    21    52 1   
    44    22    23 1   
    45    22    53 1   
    46    22    54 1   
    47    23    24 1   
    48    23    55 1   
    49    23    56 1   
    50    24    25 1   
    51    24    27 1   
    52    25    26 1   
    53    25    57 1   
    54    25    58 1   
    55    26    59 1   
    56    26    60 1   
    57    27    28 1   
    58    27    61 1   
    59    27    62 1   
    60    28    29 ar  
    61    28    33 ar  
    62    29    30 ar  
    63    29    63 1   
    64    30    31 ar  
    65    30    64 1   
    66    31    32 ar  
    67    31    65 1   
    68    32    33 ar  
    69    32    66 1   
    70    33    67 1   
    71    34    68 1   
    72    34    69 1   
    73    34    70 1   
    74    35    71 1   
    75    35    72 1   
    76    35    73 1   
@<TRIPOS>SUBSTRUCTURE
     1 E11         1 TEMP              0 ****  ****    0 ROOT
