@<TRIPOS>MOLECULE
E12
   82    85     1     0     0
SMALL
No Charge or Current Charge


@<TRIPOS>ATOM
      1 C1           4.4020    59.0790    72.5920 c          1 E12       0.548200
      2 N2           3.5520    58.7820    73.6260 ns         1 E12      -0.365600
      3 O7           5.2610    58.3010    72.2110 o          1 E12      -0.572500
      4 C4           2.3390    60.8310    73.5380 cc         1 E12      -0.232700
      5 C5           3.1990    61.2530    72.4590 cc         1 E12      -0.083000
      6 C14          0.3990    59.8940    75.4890 c6         1 E12      -0.069900
      7 N17          0.3120    62.0090    72.8590 n7         1 E12      -0.875400
      8 C24         -0.6680    60.9540    72.5320 c3         1 E12       0.163300
      9 C6           4.1850    60.4060    72.0080 cd         1 E12      -0.318700
     10 C9           1.7440    59.1530    75.3460 c6         1 E12      -0.052200
     11 C10          1.2650    61.8110    73.9770 c6         1 E12       0.245700
     12 C13          0.5910    61.4190    75.3230 c6         1 E12      -0.071900
     13 C63         -1.3900    61.2740    71.2030 c3         1 E12      -0.082400
     14 C29          0.5620    69.3290    66.0680 c          1 E12       0.548200
     15 C3           2.5500    59.5890    74.1350 cd         1 E12       0.086900
     16 N30          1.0060    69.4660    64.7840 ns         1 E12      -0.365600
     17 C31          2.2900    69.1990    64.3500 cc         1 E12       0.086900
     18 C32          3.2620    68.7310    65.2260 cd         1 E12      -0.232700
     19 C33          2.8910    68.5750    66.6180 cd         1 E12      -0.083000
     20 C34          1.5930    68.8620    66.9980 cc         1 E12      -0.318700
     21 O35         -0.5870    69.5820    66.3910 o          1 E12      -0.572500
     22 C36          2.5290    69.4560    62.8770 c6         1 E12      -0.052200
     23 C37          4.6860    68.4420    64.7550 c6         1 E12       0.245700
     24 C38          4.8090    68.4050    63.2070 c6         1 E12      -0.071900
     25 C39          4.0380    69.5760    62.5640 c6         1 E12      -0.069900
     26 N40          5.2230    67.2090    65.3740 n7         1 E12      -0.875400
     27 C41          4.5070    65.9360    65.1380 c3         1 E12       0.163300
     28 C64         -0.7110    60.7140    69.9250 c3         1 E12      -0.076900
     29 C65          0.7680    61.1190    69.7390 c3         1 E12      -0.075400
     30 C66          1.3560    60.6740    68.3800 c3         1 E12      -0.076900
     31 C67          2.8880    60.8550    68.2620 c3         1 E12      -0.075400
     32 C68          3.3760    62.3160    68.3950 c3         1 E12      -0.075400
     33 C69          4.9020    62.4610    68.1870 c3         1 E12      -0.076900
     34 C70          5.4490    63.8900    68.4300 c3         1 E12      -0.075400
     35 C71          4.8550    65.0090    67.5360 c3         1 E12      -0.076900
     36 C72          5.0920    64.8110    66.0170 c3         1 E12      -0.082400
     37 H2           3.7140    57.8750    74.0440 hn         1 E12       0.323500
     38 H5           3.0640    62.2350    72.0090 ha         1 E12       0.180500
     39 H141        -0.0360    59.6800    76.4760 hc         1 E12       0.050450
     40 H142        -0.3160    59.5020    74.7570 hc         1 E12       0.050450
     41 H17          0.8740    62.1580    72.0170 hn         1 E12       0.412500
     42 H241        -1.4230    60.8940    73.3280 h1         1 E12       0.033450
     43 H242        -0.1850    59.9700    72.4510 h1         1 E12       0.033450
     44 H6           4.8540    60.6700    71.1990 ha         1 E12       0.210000
     45 H9C1         2.3420    59.3230    76.2510 hc         1 E12       0.059450
     46 H9C2         1.5560    58.0720    75.3100 hc         1 E12       0.059450
     47 H10          1.7480    62.7860    74.1480 h1         1 E12       0.060700
     48 H131        -0.3680    61.9410    75.4350 hc         1 E12       0.054450
     49 H132         1.2250    61.7790    76.1450 hc         1 E12       0.054450
     50 H631        -1.5300    62.3580    71.1050 hc         1 E12       0.048450
     51 H632        -2.3980    60.8450    71.2550 hc         1 E12       0.048450
     52 H33          3.6110    68.2390    67.3600 ha         1 E12       0.180500
     53 H34          1.2660    68.7550    68.0260 ha         1 E12       0.210000
     54 H361         2.0190    70.3710    62.5460 hc         1 E12       0.059450
     55 H362         2.1010    68.6360    62.2850 hc         1 E12       0.059450
     56 H37          5.3140    69.2810    65.0980 h1         1 E12       0.060700
     57 H381         4.4140    67.4640    62.8050 hc         1 E12       0.054450
     58 H382         5.8680    68.4480    62.9190 hc         1 E12       0.054450
     59 H391         4.4260    70.5310    62.9460 hc         1 E12       0.050450
     60 H392         4.1950    69.5840    61.4770 hc         1 E12       0.050450
     61 H40          5.2430    67.3590    66.3850 hn         1 E12       0.412500
     62 H411         4.5920    65.6360    64.0850 h1         1 E12       0.033450
     63 H412         3.4370    66.0360    65.3670 h1         1 E12       0.033450
     64 H641        -1.2870    61.0490    69.0540 hc         1 E12       0.036450
     65 H642        -0.7780    59.6190    69.9410 hc         1 E12       0.036450
     66 H651         1.3610    60.6620    70.5380 hc         1 E12       0.037950
     67 H652         0.8580    62.2070    69.8380 hc         1 E12       0.037950
     68 H661         0.8610    61.2270    67.5720 hc         1 E12       0.040200
     69 H662         1.1240    59.6140    68.2220 hc         1 E12       0.040200
     70 H671         3.2080    60.4620    67.2890 hc         1 E12       0.038200
     71 H672         3.3810    60.2380    69.0240 hc         1 E12       0.038200
     72 H681         3.1200    62.7010    69.3890 hc         1 E12       0.038200
     73 H682         2.8450    62.9330    67.6610 hc         1 E12       0.038200
     74 H691         5.1660    62.1310    67.1750 hc         1 E12       0.040200
     75 H692         5.4170    61.7790    68.8730 hc         1 E12       0.040200
     76 H701         6.5380    63.8750    68.2950 hc         1 E12       0.037950
     77 H702         5.2760    64.1570    69.4800 hc         1 E12       0.037950
     78 H711         3.7790    65.1010    67.7280 hc         1 E12       0.036450
     79 H712         5.3030    65.9590    67.8490 hc         1 E12       0.036450
     80 H721         6.1670    64.7160    65.8190 hc         1 E12       0.048450
     81 H722         4.6290    63.8700    65.7000 hc         1 E12       0.048450
     82 H30          0.3150    69.7950    64.1220 hn         1 E12       0.323500
@<TRIPOS>BOND
     1     1     2 1   
     2     1     3 2   
     3     1     9 1   
     4     2    15 1   
     5     2    37 1   
     6     4     5 1   
     7     4    11 1   
     8     4    15 2   
     9     5     9 2   
    10     5    38 1   
    11     6    10 1   
    12     6    12 1   
    13     6    39 1   
    14     6    40 1   
    15     7     8 1   
    16     7    11 1   
    17     7    41 1   
    18     8    13 1   
    19     8    42 1   
    20     8    43 1   
    21     9    44 1   
    22    10    15 1   
    23    10    45 1   
    24    10    46 1   
    25    11    12 1   
    26    11    47 1   
    27    12    48 1   
    28    12    49 1   
    29    13    28 1   
    30    13    50 1   
    31    13    51 1   
    32    14    16 1   
    33    14    20 1   
    34    14    21 2   
    35    16    17 1   
    36    16    82 1   
    37    17    18 2   
    38    17    22 1   
    39    18    19 1   
    40    18    23 1   
    41    19    20 2   
    42    19    52 1   
    43    20    53 1   
    44    22    25 1   
    45    22    54 1   
    46    22    55 1   
    47    23    24 1   
    48    23    26 1   
    49    23    56 1   
    50    24    25 1   
    51    24    57 1   
    52    24    58 1   
    53    25    59 1   
    54    25    60 1   
    55    26    27 1   
    56    26    61 1   
    57    27    36 1   
    58    27    62 1   
    59    27    63 1   
    60    28    29 1   
    61    28    64 1   
    62    28    65 1   
    63    29    30 1   
    64    29    66 1   
    65    29    67 1   
    66    30    31 1   
    67    30    68 1   
    68    30    69 1   
    69    31    32 1   
    70    31    70 1   
    71    31    71 1   
    72    32    33 1   
    73    32    72 1   
    74    32    73 1   
    75    33    34 1   
    76    33    74 1   
    77    33    75 1   
    78    34    35 1   
    79    34    76 1   
    80    34    77 1   
    81    35    36 1   
    82    35    78 1   
    83    35    79 1   
    84    36    80 1   
    85    36    81 1   
@<TRIPOS>SUBSTRUCTURE
     1 E12         1 TEMP              0 ****  ****    0 ROOT
