@<TRIPOS>MOLECULE
E12
   82    85     1     0     0
SMALL
abcg2


@<TRIPOS>ATOM
      1 C1           4.5450    59.8530    72.1020 c          1 E12       0.548200
      2 N2           3.7850    59.1790    73.0470 ns         1 E12      -0.365600
      3 O7           5.4660    59.2640    71.5100 o          1 E12      -0.572500
      4 C4           2.3570    60.9900    73.5480 cc         1 E12      -0.232700
      5 C5           3.1010    61.7420    72.6020 cc         1 E12      -0.083000
      6 C14          0.7390    59.2830    75.2150 c6         1 E12      -0.069900
      7 N17          0.0820    62.0220    73.4010 n7         1 E12      -0.875400
      8 C24         -0.6490    60.9410    72.7330 c3         1 E12       0.163300
      9 C6           4.1530    61.2190    71.9120 cd         1 E12      -0.318700
     10 C9           2.1210    58.7970    74.7890 c6         1 E12      -0.052200
     11 C10          1.1970    61.6380    74.2870 c6         1 E12       0.245700
     12 C13          0.7450    60.7900    75.4840 c6         1 E12      -0.071900
     13 C63         -1.4330    61.4680    71.5180 c3         1 E12      -0.082400
     14 C29          0.4590    69.2560    65.4680 c          1 E12       0.548200
     15 C3           2.7410    59.6940    73.7610 cd         1 E12       0.086900
     16 N30          1.1190    69.3380    64.2510 ns         1 E12      -0.365600
     17 C31          2.4400    69.0710    64.0290 cc         1 E12       0.086900
     18 C32          3.2330    68.6720    65.0710 cd         1 E12      -0.232700
     19 C33          2.6250    68.5870    66.3500 cd         1 E12      -0.083000
     20 C34          1.3050    68.8580    66.5560 cc         1 E12      -0.318700
     21 O35         -0.7530    69.5200    65.5370 o          1 E12      -0.572500
     22 C36          2.9340    69.2510    62.6250 c6         1 E12      -0.052200
     23 C37          4.7130    68.3470    64.8880 c6         1 E12       0.245700
     24 C38          5.0900    68.2460    63.4070 c6         1 E12      -0.071900
     25 C39          4.4570    69.3630    62.5860 c6         1 E12      -0.069900
     26 N40          5.1670    67.1550    65.6190 n7         1 E12      -0.875400
     27 C41          4.3960    65.9290    65.4110 c3         1 E12       0.163300
     28 C64         -0.8870    60.9900    70.1690 c3         1 E12      -0.076900
     29 C65          0.5770    61.3480    69.9210 c3         1 E12      -0.075400
     30 C66          1.0710    60.9010    68.5450 c3         1 E12      -0.076900
     31 C67          2.5900    60.9700    68.3710 c3         1 E12      -0.075400
     32 C68          3.1850    62.3680    68.5210 c3         1 E12      -0.075400
     33 C69          4.6890    62.3960    68.2600 c3         1 E12      -0.076900
     34 C70          5.3550    63.7470    68.5410 c3         1 E12      -0.075400
     35 C71          4.8140    64.9300    67.7320 c3         1 E12      -0.076900
     36 C72          4.9590    64.7640    66.2190 c3         1 E12      -0.082400
     37 H2           4.0460    58.2140    73.2060 hn         1 E12       0.323500
     38 H5           2.8190    62.7740    72.4250 ha         1 E12       0.180500
     39 H141         0.4310    58.7500    76.1160 hc         1 E12       0.050450
     40 H142         0.0170    59.0360    74.4370 hc         1 E12       0.050450
     41 H17          0.4390    62.6610    72.7000 hn         1 E12       0.412500
     42 H241        -1.3370    60.4950    73.4540 h1         1 E12       0.033450
     43 H242         0.0230    60.1340    72.4070 h1         1 E12       0.033450
     44 H6           4.7130    61.8060    71.2000 ha         1 E12       0.210000
     45 H9C1         2.7920    58.7720    75.6560 hc         1 E12       0.059450
     46 H9C2         2.0770    57.7750    74.4040 hc         1 E12       0.059450
     47 H10          1.5670    62.5880    74.6830 h1         1 E12       0.060700
     48 H131        -0.2430    61.1280    75.8030 hc         1 E12       0.054450
     49 H132         1.4320    60.9840    76.3130 hc         1 E12       0.054450
     50 H631        -1.4280    62.5620    71.5430 hc         1 E12       0.048450
     51 H632        -2.4800    61.1680    71.5990 hc         1 E12       0.048450
     52 H33          3.2350    68.2870    67.1950 ha         1 E12       0.180500
     53 H34          0.8550    68.7840    67.5360 ha         1 E12       0.210000
     54 H361         2.4620    70.1350    62.1880 hc         1 E12       0.059450
     55 H362         2.6060    68.3940    62.0260 hc         1 E12       0.059450
     56 H37          5.2850    69.1770    65.3170 h1         1 E12       0.060700
     57 H381         4.7550    67.2830    63.0120 hc         1 E12       0.054450
     58 H382         6.1780    68.2670    63.3240 hc         1 E12       0.054450
     59 H391         4.7610    70.3350    62.9840 hc         1 E12       0.050450
     60 H392         4.8000    69.3170    61.5510 hc         1 E12       0.050450
     61 H40          5.2060    67.3670    66.6080 hn         1 E12       0.412500
     62 H411         4.4310    65.6760    64.3500 h1         1 E12       0.033450
     63 H412         3.3330    66.0550    65.6670 h1         1 E12       0.033450
     64 H641        -1.5040    61.4130    69.3690 hc         1 E12       0.036450
     65 H642        -1.0000    59.9020    70.1020 hc         1 E12       0.036450
     66 H651         1.2010    60.8800    70.6870 hc         1 E12       0.037950
     67 H652         0.7110    62.4280    70.0370 hc         1 E12       0.037950
     68 H661         0.5850    61.5070    67.7720 hc         1 E12       0.040200
     69 H662         0.7460    59.8690    68.3750 hc         1 E12       0.040200
     70 H671         2.8510    60.5800    67.3810 hc         1 E12       0.038200
     71 H672         3.0630    60.3020    69.0990 hc         1 E12       0.038200
     72 H681         2.9920    62.7450    69.5300 hc         1 E12       0.038200
     73 H682         2.6730    63.0510    67.8350 hc         1 E12       0.038200
     74 H691         4.8800    62.0900    67.2260 hc         1 E12       0.040200
     75 H692         5.1700    61.6390    68.8870 hc         1 E12       0.040200
     76 H701         6.4300    63.6550    68.3550 hc         1 E12       0.037950
     77 H702         5.2450    63.9720    69.6080 hc         1 E12       0.037950
     78 H711         3.7590    65.0950    67.9700 hc         1 E12       0.036450
     79 H712         5.3440    65.8300    68.0600 hc         1 E12       0.036450
     80 H721         6.0150    64.6240    65.9640 hc         1 E12       0.048450
     81 H722         4.4350    63.8590    65.9010 hc         1 E12       0.048450
     82 H30          0.5510    69.6410    63.4690 hn         1 E12       0.323500
@<TRIPOS>BOND
     1     1     2 1   
     2     1     3 2   
     3     1     9 1   
     4     2    15 1   
     5     2    37 1   
     6     4     5 1   
     7     4    11 1   
     8     4    15 2   
     9     5     9 2   
    10     5    38 1   
    11     6    10 1   
    12     6    12 1   
    13     6    39 1   
    14     6    40 1   
    15     7     8 1   
    16     7    11 1   
    17     7    41 1   
    18     8    13 1   
    19     8    42 1   
    20     8    43 1   
    21     9    44 1   
    22    10    15 1   
    23    10    45 1   
    24    10    46 1   
    25    11    12 1   
    26    11    47 1   
    27    12    48 1   
    28    12    49 1   
    29    13    28 1   
    30    13    50 1   
    31    13    51 1   
    32    14    16 1   
    33    14    20 1   
    34    14    21 2   
    35    16    17 1   
    36    16    82 1   
    37    17    18 2   
    38    17    22 1   
    39    18    19 1   
    40    18    23 1   
    41    19    20 2   
    42    19    52 1   
    43    20    53 1   
    44    22    25 1   
    45    22    54 1   
    46    22    55 1   
    47    23    24 1   
    48    23    26 1   
    49    23    56 1   
    50    24    25 1   
    51    24    57 1   
    52    24    58 1   
    53    25    59 1   
    54    25    60 1   
    55    26    27 1   
    56    26    61 1   
    57    27    36 1   
    58    27    62 1   
    59    27    63 1   
    60    28    29 1   
    61    28    64 1   
    62    28    65 1   
    63    29    30 1   
    64    29    66 1   
    65    29    67 1   
    66    30    31 1   
    67    30    68 1   
    68    30    69 1   
    69    31    32 1   
    70    31    70 1   
    71    31    71 1   
    72    32    33 1   
    73    32    72 1   
    74    32    73 1   
    75    33    34 1   
    76    33    74 1   
    77    33    75 1   
    78    34    35 1   
    79    34    76 1   
    80    34    77 1   
    81    35    36 1   
    82    35    78 1   
    83    35    79 1   
    84    36    80 1   
    85    36    81 1   
@<TRIPOS>SUBSTRUCTURE
     1 E12         1 TEMP              0 ****  ****    0 ROOT
