@<TRIPOS>MOLECULE
E13
  103   105     1     0     0
SMALL
No Charge or Current Charge


@<TRIPOS>ATOM
      1 CB1         -8.4160     0.3830    -0.6150 c          1 E13       0.640100
      2 OA1         -8.4800     0.5040    -1.8280 o          1 E13      -0.538000
      3 OA2         -9.4620     0.4620     0.2530 os         1 E13      -0.455100
      4 CB2        -10.7650     0.7310    -0.2930 c3         1 E13       0.170900
      5 CBF         -4.9950    -0.8140     0.4730 c          1 E13       0.601100
      6 NAJ         -7.2810     0.1130     0.0890 ns         1 E13      -0.496900
      7 OAK         -5.2840    -1.0450     1.6430 o          1 E13      -0.613100
      8 CBM         -5.9400    -0.0560    -0.5030 c3         1 E13       0.103000
      9 CBK         -5.3460     1.2910    -0.9150 ca         1 E13      -0.114300
     10 CAQ         -4.2560     3.7780    -1.6800 ca         1 E13      -0.098000
     11 CAT         -4.3560     2.7360    -2.6160 ca         1 E13      -0.108500
     12 CAU         -4.7000     3.5800    -0.3620 ca         1 E13      -0.108500
     13 CAX         -4.9010     1.4970    -2.2370 ca         1 E13      -0.084000
     14 CAY         -5.2380     2.3400     0.0210 ca         1 E13      -0.084000
     15 N           -3.7850    -1.1980    -0.0690 ns         1 E13      -0.481900
     16 CA          -2.7250    -1.9580     0.6380 c3         1 E13       0.037700
     17 CB          -2.8230    -3.5080     0.3540 c3         1 E13      -0.051000
     18 CAG         -2.6600    -3.8120    -1.1620 c3         1 E13      -0.087433
     19 CG1         -1.7210    -4.2810     1.1330 c3         1 E13      -0.087433
     20 CG2         -4.2000    -4.0570     0.8220 c3         1 E13      -0.087433
     21 C           -1.3420    -1.3420     0.2620 c          1 E13       0.595100
     22 O           -1.1210    -0.8100    -0.8200 o          1 E13      -0.616100
     23 CBI          3.4750    -1.6460     1.1300 c          1 E13       0.579100
     24 NBC         -0.3770    -1.4190     1.2460 ns         1 E13      -0.486900
     25 OAN          4.2500    -1.3800     2.0430 o          1 E13      -0.614100
     26 CBN          2.0040    -2.0600     1.4540 c3         1 E13       0.083300
     27 CBJ          0.2860     1.5080     1.5400 ca         1 E13      -0.088300
     28 CBA          1.1840     0.3620     1.9940 c3         1 E13      -0.042100
     29 CAP         -1.3620     3.6280     0.6840 ca         1 E13      -0.107000
     30 CBO          0.9970    -0.9150     1.1330 c3         1 E13       0.083700
     31 OAO          1.8570    -2.4840     2.8370 oh         1 E13      -0.650000
     32 CAV         -0.9590     1.7330     2.1590 ca         1 E13      -0.099000
     33 CAW          0.6980     2.3480     0.4860 ca         1 E13      -0.099000
     34 CAR         -1.7820     2.7900     1.7300 ca         1 E13      -0.109000
     35 CAS         -0.1240     3.4050     0.0610 ca         1 E13      -0.109000
     36 CBH          5.3030     0.5580    -0.2350 c          1 E13       0.594100
     37 NBR          3.9040    -1.5610    -0.2130 n          1 E13      -0.388800
     38 OAM          4.3670     1.3480    -0.2240 o          1 E13      -0.589100
     39 CBQ          5.2470    -0.9730    -0.5500 c5         1 E13       0.028700
     40 CBU          5.4840    -1.2510    -2.0900 c5         1 E13       0.090000
     41 CAZ          3.1420    -2.1330    -1.3470 c5         1 E13       0.228000
     42 CAH          6.3250    -0.1940    -2.8590 c3         1 E13      -0.082100
     43 CAI          6.1410    -2.6370    -2.3300 c3         1 E13      -0.082100
     44 SBE          3.7940    -1.2590    -2.8290 ss         1 E13      -0.374000
     45 CBL          6.9910     2.2930     0.4320 c3         1 E13       0.111000
     46 CBS          8.5320     2.4830     0.5390 c3         1 E13      -0.064000
     47 CAB          9.2180     2.1340    -0.8100 c3         1 E13      -0.085433
     48 CAC          8.8230     3.9670     0.8820 c3         1 E13      -0.085433
     49 CAD          9.1130     1.5830     1.6630 c3         1 E13      -0.085433
     50 HB2        -11.0640    -0.0550    -0.9990 h1         1 E13       0.047033
     51 HB2A       -11.5150     0.7710     0.5080 h1         1 E13       0.047033
     52 HB2B       -10.7780     1.6950    -0.8190 h1         1 E13       0.047033
     53 HNAJ        -7.3890     0.0070     1.0900 hn         1 E13       0.352500
     54 HBM         -6.0400    -0.6940    -1.3920 h1         1 E13       0.081700
     55 HAQ         -3.8360     4.7370    -1.9750 ha         1 E13       0.111000
     56 HAT         -4.0140     2.8880    -3.6370 ha         1 E13       0.114000
     57 HAU         -4.6260     4.3870     0.3640 ha         1 E13       0.114000
     58 HAX         -4.9800     0.7000    -2.9740 ha         1 E13       0.115500
     59 HAY         -5.5760     2.1980     1.0450 ha         1 E13       0.115500
     60 HN          -3.5990    -0.9040    -1.0220 hn         1 E13       0.338500
     61 HA          -2.8490    -1.7950     1.7170 h1         1 E13       0.086700
     62 HAG         -1.6840    -3.4800    -1.5350 hc         1 E13       0.039589
     63 HAGA        -2.7380    -4.8890    -1.3530 hc         1 E13       0.039589
     64 HAGB        -3.4370    -3.3150    -1.7560 hc         1 E13       0.039589
     65 HG1         -1.7540    -4.0430     2.2030 hc         1 E13       0.039589
     66 HG1A        -1.8550    -5.3650     1.0280 hc         1 E13       0.039589
     67 HG1B        -0.7180    -4.0450     0.7570 hc         1 E13       0.039589
     68 HG2         -5.0240    -3.6300     0.2380 hc         1 E13       0.039589
     69 HG2A        -4.2500    -5.1460     0.7030 hc         1 E13       0.039589
     70 HG2B        -4.3740    -3.8270     1.8800 hc         1 E13       0.039589
     71 HNBC        -0.6350    -1.8860     2.1080 hn         1 E13       0.323500
     72 HBN          1.7690    -2.9080     0.7970 h1         1 E13       0.084700
     73 HBA          2.2300     0.6850     1.9450 hc         1 E13       0.061200
     74 HBAA         0.9900     0.1250     3.0470 hc         1 E13       0.061200
     75 HAP         -1.9940     4.4500     0.3560 ha         1 E13       0.108000
     76 HBO          1.1650    -0.6090     0.0920 h1         1 E13       0.104700
     77 HOAO         2.6770    -2.1890     3.3000 ho         1 E13       0.471000
     78 HAV         -1.2920     1.0880     2.9690 ha         1 E13       0.117500
     79 HAW          1.6550     2.1820    -0.0030 ha         1 E13       0.117500
     80 HAR         -2.7430     2.9590     2.2100 ha         1 E13       0.111500
     81 HAS          0.2000     4.0520    -0.7520 ha         1 E13       0.111500
     82 HBQ          6.0310    -1.4570     0.0480 h1         1 E13       0.086700
     83 HAZ          3.3670    -3.2060    -1.3920 h2         1 E13       0.084200
     84 HAZA         2.0720    -1.9300    -1.2280 h2         1 E13       0.084200
     85 HAH          7.3390    -0.1120    -2.4500 hc         1 E13       0.049867
     86 HAHA         6.4220    -0.4620    -3.9180 hc         1 E13       0.049867
     87 HAHB         5.8640     0.8010    -2.8270 hc         1 E13       0.049867
     88 HAI          5.5970    -3.4430    -1.8240 hc         1 E13       0.049867
     89 HAIA         6.1750    -2.8830    -3.3980 hc         1 E13       0.049867
     90 HAIB         7.1700    -2.6550    -1.9520 hc         1 E13       0.049867
     91 HNBB         7.3020     0.2050     0.0820 hn         1 E13       0.317500
     92 HBL          6.5950     2.9710    -0.3370 h1         1 E13       0.052200
     93 HBLA         6.5210     2.5610     1.3870 h1         1 E13       0.052200
     94 HAB          8.7960     2.7300    -1.6290 hc         1 E13       0.036589
     95 HABA        10.2950     2.3380    -0.7650 hc         1 E13       0.036589
     96 HABB         9.0920     1.0740    -1.0620 hc         1 E13       0.036589
     97 HAC          8.3550     4.2480     1.8340 hc         1 E13       0.036589
     98 HACA         9.9010     4.1470     0.9700 hc         1 E13       0.036589
     99 HACB         8.4320     4.6340     0.1030 hc         1 E13       0.036589
    100 HAD          8.9700     0.5190     1.4410 hc         1 E13       0.036589
    101 HADA        10.1900     1.7550     1.7840 hc         1 E13       0.036589
    102 HADB         8.6280     1.7960     2.6240 hc         1 E13       0.036589
    103 NBB          6.5920     0.9260     0.0900 ns         1 E13      -0.496900
@<TRIPOS>BOND
     1     1     2 2   
     2     1     3 1   
     3     1     6 1   
     4     3     4 1   
     5     4    50 1   
     6     4    51 1   
     7     4    52 1   
     8     5     7 2   
     9     5     8 1   
    10     5    15 1   
    11     6     8 1   
    12     6    53 1   
    13     8     9 1   
    14     8    54 1   
    15     9    13 ar  
    16     9    14 ar  
    17    10    11 ar  
    18    10    12 ar  
    19    10    55 1   
    20    11    13 ar  
    21    11    56 1   
    22    12    14 ar  
    23    12    57 1   
    24    13    58 1   
    25    14    59 1   
    26    15    16 1   
    27    15    60 1   
    28    16    17 1   
    29    16    21 1   
    30    16    61 1   
    31    17    18 1   
    32    17    19 1   
    33    17    20 1   
    34    18    62 1   
    35    18    63 1   
    36    18    64 1   
    37    19    65 1   
    38    19    66 1   
    39    19    67 1   
    40    20    68 1   
    41    20    69 1   
    42    20    70 1   
    43    21    22 2   
    44    21    24 1   
    45    23    25 2   
    46    23    26 1   
    47    23    37 1   
    48    24    30 1   
    49    24    71 1   
    50    26    30 1   
    51    26    31 1   
    52    26    72 1   
    53    27    28 1   
    54    27    32 ar  
    55    27    33 ar  
    56    28    30 1   
    57    28    73 1   
    58    28    74 1   
    59    29    34 ar  
    60    29    35 ar  
    61    29    75 1   
    62    30    76 1   
    63    31    77 1   
    64    32    34 ar  
    65    32    78 1   
    66    33    35 ar  
    67    33    79 1   
    68    34    80 1   
    69    35    81 1   
    70    36    38 2   
    71    36    39 1   
    72    36   103 1   
    73    37    39 1   
    74    37    41 1   
    75    39    40 1   
    76    39    82 1   
    77    40    42 1   
    78    40    43 1   
    79    40    44 1   
    80    41    44 1   
    81    41    83 1   
    82    41    84 1   
    83    42    85 1   
    84    42    86 1   
    85    42    87 1   
    86    43    88 1   
    87    43    89 1   
    88    43    90 1   
    89    45    46 1   
    90    45    92 1   
    91    45    93 1   
    92    45   103 1   
    93    46    47 1   
    94    46    48 1   
    95    46    49 1   
    96    47    94 1   
    97    47    95 1   
    98    47    96 1   
    99    48    97 1   
   100    48    98 1   
   101    48    99 1   
   102    49   100 1   
   103    49   101 1   
   104    49   102 1   
   105    91   103 1   
@<TRIPOS>SUBSTRUCTURE
     1 E13         1 TEMP              0 ****  ****    0 ROOT
