@<TRIPOS>MOLECULE
E13
  103   105     1     0     0
SMALL
abcg2


@<TRIPOS>ATOM
      1 CB1         -7.7010     0.6430    -0.9490 c          1 E13       0.640100
      2 OA1         -7.5740     0.9420    -2.1180 o          1 E13      -0.538000
      3 OA2         -8.8460     0.7320    -0.2680 os         1 E13      -0.455100
      4 CB2         -9.9820     1.2110    -0.9800 c3         1 E13       0.170900
      5 CBF         -4.5640    -0.7470     0.3670 c          1 E13       0.601100
      6 NAJ         -6.7130     0.1680    -0.1680 ns         1 E13      -0.496900
      7 OAK         -4.8940    -0.7810     1.5410 o          1 E13      -0.613100
      8 CBM         -5.3670     0.0600    -0.6580 c3         1 E13       0.103000
      9 CBK         -4.6910     1.4020    -0.8590 ca         1 E13      -0.114300
     10 CAQ         -3.4160     3.8540    -1.2160 ca         1 E13      -0.098000
     11 CAT         -3.2680     2.8500    -2.1600 ca         1 E13      -0.108500
     12 CAU         -4.1990     3.6310    -0.0910 ca         1 E13      -0.108500
     13 CAX         -3.9060     1.6290    -1.9820 ca         1 E13      -0.084000
     14 CAY         -4.8300     2.4100     0.0900 ca         1 E13      -0.084000
     15 N           -3.4920    -1.3690    -0.1390 ns         1 E13      -0.481900
     16 CA          -2.5410    -2.1100     0.6570 c3         1 E13       0.037700
     17 CB          -2.6790    -3.6490     0.4660 c3         1 E13      -0.051000
     18 CAG         -2.4710    -4.0720    -0.9890 c3         1 E13      -0.087433
     19 CG1         -1.6580    -4.3670     1.3520 c3         1 E13      -0.087433
     20 CG2         -4.0830    -4.0650     0.9110 c3         1 E13      -0.087433
     21 C           -1.1480    -1.5930     0.3090 c          1 E13       0.595100
     22 O           -0.8330    -1.3540    -0.8480 o          1 E13      -0.616100
     23 CBI          3.4000    -1.7940     0.9470 c          1 E13       0.579100
     24 NBC         -0.3230    -1.4310     1.3530 ns         1 E13      -0.486900
     25 OAN          4.2120    -1.4400     1.7920 o          1 E13      -0.614100
     26 CBN          1.9990    -2.2090     1.3790 c3         1 E13       0.083300
     27 CBJ          0.5460     1.3530     1.9780 ca         1 E13      -0.088300
     28 CBA          1.3260     0.1040     2.2800 c3         1 E13      -0.042100
     29 CAP         -0.9130     3.6500     1.3260 ca         1 E13      -0.107000
     30 CBO          1.0490    -0.9930     1.2440 c3         1 E13       0.083700
     31 OAO          2.0190    -2.7170     2.6780 oh         1 E13      -0.650000
     32 CAV         -0.7490     1.5340     2.4590 ca         1 E13      -0.099000
     33 CAW          1.1000     2.3420     1.1680 ca         1 E13      -0.099000
     34 CAR         -1.4760     2.6690     2.1310 ca         1 E13      -0.109000
     35 CAS          0.3800     3.4850     0.8490 ca         1 E13      -0.109000
     36 CBH          4.8350     0.3430    -0.5720 c          1 E13       0.594100
     37 NBR          3.6810    -1.7770    -0.3670 n          1 E13      -0.388800
     38 OAM          3.7840     0.9470    -0.7120 o          1 E13      -0.589100
     39 CBQ          4.9240    -1.1680    -0.7990 c5         1 E13       0.028700
     40 CBU          5.1240    -1.5580    -2.2790 c5         1 E13       0.090000
     41 CAZ          2.7830    -2.2420    -1.4170 c5         1 E13       0.228000
     42 CAH          5.9860    -0.5850    -3.0690 c3         1 E13      -0.082100
     43 CAI          5.7080    -2.9660    -2.3610 c3         1 E13      -0.082100
     44 SBE          3.4220    -1.5320    -2.9460 ss         1 E13      -0.374000
     45 CBL          6.1150     2.3590    -0.0600 c3         1 E13       0.111000
     46 CBS          7.5390     2.7830     0.3150 c3         1 E13      -0.064000
     47 CAB          8.5320     2.3700    -0.7730 c3         1 E13      -0.085433
     48 CAC          7.5330     4.3080     0.4350 c3         1 E13      -0.085433
     49 CAD          7.9440     2.1800     1.6620 c3         1 E13      -0.085433
     50 HB2        -10.2340     0.5670    -1.8220 h1         1 E13       0.047033
     51 HB2A       -10.8030     1.2020    -0.2680 h1         1 E13       0.047033
     52 HB2B        -9.8340     2.2290    -1.3400 h1         1 E13       0.047033
     53 HNAJ        -6.8770    -0.0140     0.8110 hn         1 E13       0.352500
     54 HBM         -5.3680    -0.4800    -1.6090 h1         1 E13       0.081700
     55 HAQ         -2.9220     4.8080    -1.3530 ha         1 E13       0.111000
     56 HAT         -2.6640     3.0170    -3.0430 ha         1 E13       0.114000
     57 HAU         -4.3130     4.4100     0.6530 ha         1 E13       0.114000
     58 HAX         -3.8030     0.8560    -2.7350 ha         1 E13       0.115500
     59 HAY         -5.4400     2.2480     0.9700 ha         1 E13       0.115500
     60 HN          -3.2760    -1.2510    -1.1170 hn         1 E13       0.338500
     61 HA          -2.7590    -1.8910     1.7040 h1         1 E13       0.086700
     62 HAG         -1.4630    -3.8650    -1.3470 hc         1 E13       0.039589
     63 HAGA        -2.6360    -5.1460    -1.0810 hc         1 E13       0.039589
     64 HAGB        -3.1760    -3.5830    -1.6640 hc         1 E13       0.039589
     65 HG1         -1.7650    -4.0860     2.4020 hc         1 E13       0.039589
     66 HG1A        -1.8040    -5.4460     1.2850 hc         1 E13       0.039589
     67 HG1B        -0.6280    -4.1630     1.0550 hc         1 E13       0.039589
     68 HG2         -4.8590    -3.6190     0.2890 hc         1 E13       0.039589
     69 HG2A        -4.1870    -5.1490     0.8350 hc         1 E13       0.039589
     70 HG2B        -4.2740    -3.7840     1.9470 hc         1 E13       0.039589
     71 HNBC        -0.6570    -1.6660     2.2750 hn         1 E13       0.323500
     72 HBN          1.6230    -3.0040     0.7270 h1         1 E13       0.084700
     73 HBA          2.3920     0.3340     2.2810 hc         1 E13       0.061200
     74 HBAA         1.0800    -0.2650     3.2790 hc         1 E13       0.061200
     75 HAP         -1.4790     4.5360     1.0700 ha         1 E13       0.108000
     76 HBO          1.1730    -0.5600     0.2500 h1         1 E13       0.104700
     77 HOAO         2.7210    -2.2610     3.1630 ho         1 E13       0.471000
     78 HAV         -1.1970     0.7820     3.0980 ha         1 E13       0.117500
     79 HAW          2.1040     2.2100     0.7810 ha         1 E13       0.117500
     80 HAR         -2.4860     2.7870     2.5000 ha         1 E13       0.111500
     81 HAS          0.8290     4.2460     0.2230 ha         1 E13       0.111500
     82 HBQ          5.7600    -1.5790    -0.2260 h1         1 E13       0.086700
     83 HAZ          2.7740    -3.3320    -1.4620 h2         1 E13       0.084200
     84 HAZA         1.7580    -1.8940    -1.2880 h2         1 E13       0.084200
     85 HAH          6.9900    -0.5350    -2.6450 hc         1 E13       0.049867
     86 HAHA         6.0860    -0.9310    -4.0980 hc         1 E13       0.049867
     87 HAHB         5.5720     0.4220    -3.0920 hc         1 E13       0.049867
     88 HAI          5.1160    -3.6950    -1.8080 hc         1 E13       0.049867
     89 HAIA         5.7620    -3.2940    -3.3990 hc         1 E13       0.049867
     90 HAIB         6.7190    -2.9770    -1.9480 hc         1 E13       0.049867
     91 HNBB         6.8000     0.3480    -0.1030 hn         1 E13       0.317500
     92 HBL          5.8210     2.8640    -0.9860 h1         1 E13       0.052200
     93 HBLA         5.4220     2.6960     0.7180 h1         1 E13       0.052200
     94 HAB          8.2410     2.7730    -1.7460 hc         1 E13       0.036589
     95 HABA         9.5300     2.7480    -0.5400 hc         1 E13       0.036589
     96 HABB         8.6220     1.2870    -0.8790 hc         1 E13       0.036589
     97 HAC          6.8300     4.6410     1.2010 hc         1 E13       0.036589
     98 HACA         8.5220     4.6780     0.7080 hc         1 E13       0.036589
     99 HACB         7.2500     4.7810    -0.5080 hc         1 E13       0.036589
    100 HAD          7.9690     1.0880     1.6480 hc         1 E13       0.036589
    101 HADA         8.9410     2.5190     1.9470 hc         1 E13       0.036589
    102 HADB         7.2500     2.4840     2.4500 hc         1 E13       0.036589
    103 NBB          5.9870     0.9280    -0.2340 ns         1 E13      -0.496900
@<TRIPOS>BOND
     1     1     2 2   
     2     1     3 1   
     3     1     6 1   
     4     3     4 1   
     5     4    50 1   
     6     4    51 1   
     7     4    52 1   
     8     5     7 2   
     9     5     8 1   
    10     5    15 1   
    11     6     8 1   
    12     6    53 1   
    13     8     9 1   
    14     8    54 1   
    15     9    13 ar  
    16     9    14 ar  
    17    10    11 ar  
    18    10    12 ar  
    19    10    55 1   
    20    11    13 ar  
    21    11    56 1   
    22    12    14 ar  
    23    12    57 1   
    24    13    58 1   
    25    14    59 1   
    26    15    16 1   
    27    15    60 1   
    28    16    17 1   
    29    16    21 1   
    30    16    61 1   
    31    17    18 1   
    32    17    19 1   
    33    17    20 1   
    34    18    62 1   
    35    18    63 1   
    36    18    64 1   
    37    19    65 1   
    38    19    66 1   
    39    19    67 1   
    40    20    68 1   
    41    20    69 1   
    42    20    70 1   
    43    21    22 2   
    44    21    24 1   
    45    23    25 2   
    46    23    26 1   
    47    23    37 1   
    48    24    30 1   
    49    24    71 1   
    50    26    30 1   
    51    26    31 1   
    52    26    72 1   
    53    27    28 1   
    54    27    32 ar  
    55    27    33 ar  
    56    28    30 1   
    57    28    73 1   
    58    28    74 1   
    59    29    34 ar  
    60    29    35 ar  
    61    29    75 1   
    62    30    76 1   
    63    31    77 1   
    64    32    34 ar  
    65    32    78 1   
    66    33    35 ar  
    67    33    79 1   
    68    34    80 1   
    69    35    81 1   
    70    36    38 2   
    71    36    39 1   
    72    36   103 1   
    73    37    39 1   
    74    37    41 1   
    75    39    40 1   
    76    39    82 1   
    77    40    42 1   
    78    40    43 1   
    79    40    44 1   
    80    41    44 1   
    81    41    83 1   
    82    41    84 1   
    83    42    85 1   
    84    42    86 1   
    85    42    87 1   
    86    43    88 1   
    87    43    89 1   
    88    43    90 1   
    89    45    46 1   
    90    45    92 1   
    91    45    93 1   
    92    45   103 1   
    93    46    47 1   
    94    46    48 1   
    95    46    49 1   
    96    47    94 1   
    97    47    95 1   
    98    47    96 1   
    99    48    97 1   
   100    48    98 1   
   101    48    99 1   
   102    49   100 1   
   103    49   101 1   
   104    49   102 1   
   105    91   103 1   
@<TRIPOS>SUBSTRUCTURE
     1 E13         1 TEMP              0 ****  ****    0 ROOT
