@<TRIPOS>MOLECULE
E14
   94    96     1     0     0
SMALL
bcc


@<TRIPOS>ATOM
      1 CBF         -4.8740    -0.4800     0.3160 c          1 E14       0.684100
      2 NAJ         -7.1580    -0.1240    -0.3180 n8         1 E14      -0.878800
      3 OAK         -5.0730    -0.4440     1.5200 o          1 E14      -0.612100
      4 CBM         -5.7990     0.2580    -0.6500 c3         1 E14       0.137800
      5 CBK         -5.4930     1.7440    -0.5970 ca         1 E14      -0.131300
      6 CAQ         -4.9510     4.4860    -0.5480 ca         1 E14      -0.124000
      7 CAT         -4.5140     3.7080    -1.6100 ca         1 E14      -0.129500
      8 CAU         -5.6560     3.8920     0.4930 ca         1 E14      -0.129500
      9 CAX         -4.7820     2.3450    -1.6290 ca         1 E14      -0.110500
     10 CAY         -5.9260     2.5320     0.4680 ca         1 E14      -0.110500
     11 N           -3.8640    -1.1530    -0.2580 ns         1 E14      -0.552900
     12 CA          -2.8940    -1.9220     0.4840 c3         1 E14       0.038700
     13 CB          -3.0920    -3.4550     0.3180 c3         1 E14      -0.051000
     14 CAG         -2.9500    -3.9030    -1.1380 c3         1 E14      -0.087767
     15 CG1         -2.0660    -4.1950     1.1790 c3         1 E14      -0.087767
     16 CG2         -4.4940    -3.8160     0.8150 c3         1 E14      -0.087767
     17 C           -1.5010    -1.4560     0.0680 c          1 E14       0.662100
     18 O           -1.2150    -1.2600    -1.1040 o          1 E14      -0.610100
     19 CBI          3.1020    -1.6430     0.9970 c          1 E14       0.647100
     20 NBC         -0.6420    -1.2900     1.0850 ns         1 E14      -0.559900
     21 OAN          3.8340    -1.1400     1.8390 o          1 E14      -0.615100
     22 CBN          1.6680    -1.9970     1.3730 c3         1 E14       0.061100
     23 CBJ          0.1390     1.5790     1.1370 ca         1 E14      -0.087300
     24 CBA          0.9370     0.4510     1.7300 c3         1 E14      -0.043100
     25 CAP         -1.3390     3.6330    -0.0590 ca         1 E14      -0.129000
     26 CBO          0.7240    -0.8490     0.9420 c3         1 E14       0.083700
     27 OAO          1.5740    -2.2570     2.7400 oh         1 E14      -0.588800
     28 CAV         -1.2010     1.7780     1.4670 ca         1 E14      -0.117500
     29 CAW          0.7250     2.4260     0.1980 ca         1 E14      -0.117500
     30 CAR         -1.9390     2.7890     0.8660 ca         1 E14      -0.128500
     31 CAS         -0.0030     3.4510    -0.3900 ca         1 E14      -0.128500
     32 CBH          4.5820     0.2390    -0.8220 c          1 E14       0.663100
     33 NBR          3.4950    -1.8490    -0.2700 n          1 E14      -0.454800
     34 OAM          3.5180     0.7230    -1.1710 o          1 E14      -0.584100
     35 CBQ          4.7540    -1.2800    -0.7090 c5         1 E14       0.025700
     36 CBU          5.1150    -1.9760    -2.0370 c5         1 E14       0.045100
     37 CAZ          2.6850    -2.5070    -1.2880 c5         1 E14       0.183100
     38 CAH          6.0440    -1.1670    -2.9290 c3         1 E14      -0.082100
     39 CAI          5.7190    -3.3480    -1.7470 c3         1 E14      -0.082100
     40 SBE          3.4920    -2.1530    -2.8630 ss         1 E14      -0.283200
     41 CAB          6.0310     4.5020     0.7670 c3         1 E14      -0.090100
     42 CBS          5.8330     2.9940     0.8780 c3         1 E14      -0.082700
     43 CAC          4.6040     2.6620     1.7160 c3         1 E14      -0.090100
     44 CBL          5.7530     2.3900    -0.5240 c3         1 E14       0.099000
     45 HNAJ        -7.3630     0.1130     0.6440 hn         1 E14       0.355800
     46 HNAA        -7.8060     0.4030    -0.8910 hn         1 E14       0.355800
     47 HBM         -5.5990    -0.0850    -1.6690 h1         1 E14       0.069700
     48 HAQ         -4.7440     5.5480    -0.5300 ha         1 E14       0.132000
     49 HAT         -3.9680     4.1600    -2.4270 ha         1 E14       0.133500
     50 HAU         -6.0000     4.4920     1.3260 ha         1 E14       0.133500
     51 HAX         -4.4420     1.7460    -2.4660 ha         1 E14       0.135500
     52 HAY         -6.4800     2.0890     1.2860 ha         1 E14       0.135500
     53 HN          -3.7560    -1.1090    -1.2590 hn         1 E14       0.332500
     54 HA          -3.0490    -1.6850     1.5400 h1         1 E14       0.086700
     55 HAG         -1.9480    -3.7350    -1.5300 hc         1 E14       0.039256
     56 HAGA        -3.1570    -4.9720    -1.2120 hc         1 E14       0.039256
     57 HAGB        -3.6600    -3.3960    -1.7950 hc         1 E14       0.039256
     58 HG1         -2.1310    -3.8970     2.2280 hc         1 E14       0.039256
     59 HG1A        -2.2470    -5.2700     1.1320 hc         1 E14       0.039256
     60 HG1B        -1.0400    -4.0270     0.8480 hc         1 E14       0.039256
     61 HG2         -5.2740    -3.3470     0.2160 hc         1 E14       0.039256
     62 HG2A        -4.6390    -4.8960     0.7540 hc         1 E14       0.039256
     63 HG2B        -4.6410    -3.5180     1.8550 hc         1 E14       0.039256
     64 HNBC        -0.9640    -1.4750     2.0220 hn         1 E14       0.324500
     65 HBN          1.3500    -2.9020     0.8450 h1         1 E14       0.084700
     66 HBA          1.9960     0.7150     1.7220 hc         1 E14       0.059700
     67 HBAA         0.6560     0.2950     2.7750 hc         1 E14       0.059700
     68 HAP         -1.9120     4.4260    -0.5210 ha         1 E14       0.125000
     69 HBO          0.8850    -0.6320    -0.1150 h1         1 E14       0.104700
     70 HOAO         2.2400    -1.7190     3.1900 ho         1 E14       0.432000
     71 HAV         -1.6760     1.1370     2.2000 ha         1 E14       0.135500
     72 HAW          1.7600     2.2730    -0.0820 ha         1 E14       0.135500
     73 HAR         -2.9850     2.9180     1.1130 ha         1 E14       0.131500
     74 HAS          0.4730     4.1040    -1.1100 ha         1 E14       0.131500
     75 HBQ          5.5370    -1.5080     0.0200 h1         1 E14       0.089700
     76 HAZ          2.6380    -3.5810    -1.1050 h2         1 E14       0.082200
     77 HAZA         1.6680    -2.1200    -1.3370 h2         1 E14       0.082200
     78 HAH          6.9910    -0.9830    -2.4210 hc         1 E14       0.050200
     79 HAHA         6.2650    -1.7250    -3.8400 hc         1 E14       0.050200
     80 HAHB         5.6170    -0.2090    -3.2190 hc         1 E14       0.050200
     81 HAI          5.0770    -3.9570    -1.1100 hc         1 E14       0.050200
     82 HAIA         5.8860    -3.8920    -2.6760 hc         1 E14       0.050200
     83 HAIB         6.6810    -3.2360    -1.2430 hc         1 E14       0.050200
     84 HAB          6.1470     4.9560     1.7520 hc         1 E14       0.038033
     85 HABA         6.9180     4.7490     0.1820 hc         1 E14       0.038033
     86 HABB         5.1720     4.9740     0.2840 hc         1 E14       0.038033
     87 HBS          6.7130     2.5690     1.3740 hc         1 E14       0.042700
     88 HAC          3.6980     3.0720     1.2620 hc         1 E14       0.038033
     89 HACA         4.4620     1.5870     1.8280 hc         1 E14       0.038033
     90 HACB         4.6940     3.0870     2.7170 hc         1 E14       0.038033
     91 HBL          4.8790     2.7770    -1.0490 h1         1 E14       0.057700
     92 HBLA         6.6330     2.6870    -1.1000 h1         1 E14       0.057700
     93 HNBB         6.4870     0.4510    -0.1800 hn         1 E14       0.310500
     94 NBB          5.6760     0.9460    -0.5170 ns         1 E14      -0.562900
@<TRIPOS>BOND
     1     1     3 2   
     2     1     4 1   
     3     1    11 1   
     4     2     4 1   
     5     2    45 1   
     6     2    46 1   
     7     4     5 1   
     8     4    47 1   
     9     5     9 ar  
    10     5    10 ar  
    11     6     7 ar  
    12     6     8 ar  
    13     6    48 1   
    14     7     9 ar  
    15     7    49 1   
    16     8    10 ar  
    17     8    50 1   
    18     9    51 1   
    19    10    52 1   
    20    11    12 1   
    21    11    53 1   
    22    12    13 1   
    23    12    17 1   
    24    12    54 1   
    25    13    14 1   
    26    13    15 1   
    27    13    16 1   
    28    14    55 1   
    29    14    56 1   
    30    14    57 1   
    31    15    58 1   
    32    15    59 1   
    33    15    60 1   
    34    16    61 1   
    35    16    62 1   
    36    16    63 1   
    37    17    18 2   
    38    17    20 1   
    39    19    21 2   
    40    19    22 1   
    41    19    33 1   
    42    20    26 1   
    43    20    64 1   
    44    22    26 1   
    45    22    27 1   
    46    22    65 1   
    47    23    24 1   
    48    23    28 ar  
    49    23    29 ar  
    50    24    26 1   
    51    24    66 1   
    52    24    67 1   
    53    25    30 ar  
    54    25    31 ar  
    55    25    68 1   
    56    26    69 1   
    57    27    70 1   
    58    28    30 ar  
    59    28    71 1   
    60    29    31 ar  
    61    29    72 1   
    62    30    73 1   
    63    31    74 1   
    64    32    34 2   
    65    32    35 1   
    66    32    94 1   
    67    33    35 1   
    68    33    37 1   
    69    35    36 1   
    70    35    75 1   
    71    36    38 1   
    72    36    39 1   
    73    36    40 1   
    74    37    40 1   
    75    37    76 1   
    76    37    77 1   
    77    38    78 1   
    78    38    79 1   
    79    38    80 1   
    80    39    81 1   
    81    39    82 1   
    82    39    83 1   
    83    41    42 1   
    84    41    84 1   
    85    41    85 1   
    86    41    86 1   
    87    42    43 1   
    88    42    44 1   
    89    42    87 1   
    90    43    88 1   
    91    43    89 1   
    92    43    90 1   
    93    44    91 1   
    94    44    92 1   
    95    44    94 1   
    96    93    94 1   
@<TRIPOS>SUBSTRUCTURE
     1 E14         1 TEMP              0 ****  ****    0 ROOT
