@<TRIPOS>MOLECULE
E14
   94    96     1     0     0
SMALL
No Charge or Current Charge


@<TRIPOS>ATOM
      1 CBF         -5.1570    -0.4760     0.4020 c          1 E14       0.617100
      2 NAJ         -7.5670     0.0590    -0.4530 n8         1 E14      -0.989200
      3 OAK         -5.3860    -0.5300     1.6060 o          1 E14      -0.612100
      4 CBM         -6.0940     0.2760    -0.6210 c3         1 E14       0.137800
      5 CBK         -5.8080     1.7780    -0.6380 ca         1 E14      -0.131300
      6 CAQ         -5.3030     4.5570    -0.6920 ca         1 E14      -0.106000
      7 CAT         -5.1210     3.7850    -1.8520 ca         1 E14      -0.111500
      8 CAU         -5.7320     3.9430     0.4960 ca         1 E14      -0.111500
      9 CAX         -5.3710     2.4020    -1.8250 ca         1 E14      -0.092500
     10 CAY         -5.9850     2.5610     0.5240 ca         1 E14      -0.092500
     11 N           -4.0470    -1.0820    -0.1550 ns         1 E14      -0.485900
     12 CA          -3.0250    -1.8560     0.5910 c3         1 E14       0.038700
     13 CB          -3.2730    -3.4100     0.4930 c3         1 E14      -0.051000
     14 CAG         -3.2160    -3.8970    -0.9830 c3         1 E14      -0.087767
     15 CG1         -2.2050    -4.1890     1.3120 c3         1 E14      -0.087767
     16 CG2         -4.6680    -3.7680     1.0770 c3         1 E14      -0.087767
     17 C           -1.6140    -1.4140     0.0970 c          1 E14       0.595100
     18 O           -1.3960    -1.0380    -1.0490 o          1 E14      -0.610100
     19 CBI          3.2320    -1.6760     1.0380 c          1 E14       0.580100
     20 NBC         -0.6210    -1.4440     1.0550 ns         1 E14      -0.492900
     21 OAN          3.9670    -1.2240     1.9100 o          1 E14      -0.615100
     22 CBN          1.7580    -2.0560     1.3830 c3         1 E14       0.084300
     23 CBJ         -0.0070     1.4660     0.9150 ca         1 E14      -0.087300
     24 CBA          0.9500     0.4280     1.4930 c3         1 E14      -0.043100
     25 CAP         -1.7830     3.3600    -0.1830 ca         1 E14      -0.111000
     26 CBO          0.7580    -0.9790     0.8630 c3         1 E14       0.083700
     27 OAO          1.5770    -2.2630     2.8100 oh         1 E14      -0.651000
     28 CAV         -1.2360     1.7390     1.5490 ca         1 E14      -0.099500
     29 CAW          0.3260     2.1480    -0.2720 ca         1 E14      -0.099500
     30 CAR         -2.1230     2.6810     0.9990 ca         1 E14      -0.110500
     31 CAS         -0.5590     3.0930    -0.8180 ca         1 E14      -0.110500
     32 CBH          4.9020     0.3430    -0.7790 c          1 E14       0.596100
     33 NBR          3.7100    -1.8300    -0.2820 n          1 E14      -0.387800
     34 OAM          3.9040     0.9950    -1.0560 o          1 E14      -0.584100
     35 CBQ          5.0160    -1.2140    -0.6950 c5         1 E14       0.025700
     36 CBU          5.3690    -1.8370    -2.1020 c5         1 E14       0.093000
     37 CAZ          2.9890    -2.6010    -1.3240 c5         1 E14       0.231000
     38 CAH          6.2490    -0.9560    -3.0300 c3         1 E14      -0.082100
     39 CAI          6.0620    -3.2190    -1.9650 c3         1 E14      -0.082100
     40 SBE          3.7360    -2.0690    -2.9240 ss         1 E14      -0.379000
     41 CAB          6.5860     4.4190     1.1410 c3         1 E14      -0.090100
     42 CBS          6.1980     2.9250     1.0870 c3         1 E14      -0.082700
     43 CAC          4.7900     2.6970     1.6910 c3         1 E14      -0.090100
     44 CBL          6.3400     2.3700    -0.3540 c3         1 E14       0.099000
     45 HNAJ        -7.8460     0.4270     0.4640 hn         1 E14       0.411000
     46 HNAA        -8.0660     0.6660    -1.1140 hn         1 E14       0.411000
     47 HBM         -5.8350    -0.1260    -1.6110 h1         1 E14       0.069700
     48 HAQ         -5.1080     5.6270    -0.7140 ha         1 E14       0.114000
     49 HAT         -4.7860     4.2580    -2.7720 ha         1 E14       0.115500
     50 HAU         -5.8720     4.5390     1.3950 ha         1 E14       0.115500
     51 HAX         -5.2290     1.8180    -2.7320 ha         1 E14       0.117500
     52 HAY         -6.3200     2.1000     1.4510 ha         1 E14       0.117500
     53 HN          -3.9070    -0.9520    -1.1510 hn         1 E14       0.332500
     54 HA          -3.0800    -1.5660     1.6490 h1         1 E14       0.086700
     55 HAG         -2.2340    -3.7020    -1.4310 hc         1 E14       0.039256
     56 HAGA        -3.3970    -4.9770    -1.0440 hc         1 E14       0.039256
     57 HAGB        -3.9750    -3.4000    -1.5990 hc         1 E14       0.039256
     58 HG1         -2.1680    -3.8340     2.3490 hc         1 E14       0.039256
     59 HG1A        -2.4340    -5.2610     1.3340 hc         1 E14       0.039256
     60 HG1B        -1.2050    -4.0830     0.8750 hc         1 E14       0.039256
     61 HG2         -5.4780    -3.3240     0.4860 hc         1 E14       0.039256
     62 HG2A        -4.8260    -4.8530     1.0830 hc         1 E14       0.039256
     63 HG2B        -4.7640    -3.4100     2.1100 hc         1 E14       0.039256
     64 HNBC        -0.8760    -1.7840     1.9750 hn         1 E14       0.324500
     65 HBN          1.5430    -2.9960     0.8580 h1         1 E14       0.084700
     66 HBA          1.9820     0.7620     1.3350 hc         1 E14       0.059700
     67 HBAA         0.8170     0.3640     2.5800 hc         1 E14       0.059700
     68 HAP         -2.4660     4.0910    -0.6070 ha         1 E14       0.107000
     69 HBO          0.9310    -0.8600    -0.2150 h1         1 E14       0.104700
     70 HOAO         2.3670    -1.8630     3.2460 ho         1 E14       0.471000
     71 HAV         -1.5080     1.2160     2.4630 ha         1 E14       0.117500
     72 HAW          1.2690     1.9430    -0.7730 ha         1 E14       0.117500
     73 HAR         -3.0720     2.8850     1.4900 ha         1 E14       0.113500
     74 HAS         -0.2970     3.6160    -1.7350 ha         1 E14       0.113500
     75 HBQ          5.8000    -1.4520     0.0360 h1         1 E14       0.089700
     76 HAZ          3.1810    -3.6650    -1.1390 h2         1 E14       0.082200
     77 HAZA         1.9230    -2.3530    -1.3040 h2         1 E14       0.082200
     78 HAH          7.2170    -0.7290    -2.5680 hc         1 E14       0.050200
     79 HAHA         6.4510    -1.4640    -3.9810 hc         1 E14       0.050200
     80 HAHB         5.7620    -0.0050    -3.2790 hc         1 E14       0.050200
     81 HAI          5.4920    -3.9040    -1.3270 hc         1 E14       0.050200
     82 HAIA         6.1840    -3.7040    -2.9410 hc         1 E14       0.050200
     83 HAIB         7.0590    -3.1170    -1.5190 hc         1 E14       0.050200
     84 HAB          6.5480     4.7940     2.1710 hc         1 E14       0.038033
     85 HABA         7.6060     4.5690     0.7670 hc         1 E14       0.038033
     86 HABB         5.9040     5.0230     0.5300 hc         1 E14       0.038033
     87 HBS          6.9140     2.3840     1.7190 hc         1 E14       0.042700
     88 HAC          4.0170     3.1620     1.0660 hc         1 E14       0.038033
     89 HACA         4.5660     1.6280     1.7780 hc         1 E14       0.038033
     90 HACB         4.7250     3.1310     2.6960 hc         1 E14       0.038033
     91 HBL          5.6420     2.8930    -1.0210 h1         1 E14       0.057700
     92 HBLA         7.3560     2.5730    -0.7190 h1         1 E14       0.057700
     93 HNBB         6.8760     0.3040    -0.2050 hn         1 E14       0.310500
     94 NBB          6.1100     0.9250    -0.4400 ns         1 E14      -0.495900
@<TRIPOS>BOND
     1     1     3 2   
     2     1     4 1   
     3     1    11 1   
     4     2     4 1   
     5     2    45 1   
     6     2    46 1   
     7     4     5 1   
     8     4    47 1   
     9     5     9 ar  
    10     5    10 ar  
    11     6     7 ar  
    12     6     8 ar  
    13     6    48 1   
    14     7     9 ar  
    15     7    49 1   
    16     8    10 ar  
    17     8    50 1   
    18     9    51 1   
    19    10    52 1   
    20    11    12 1   
    21    11    53 1   
    22    12    13 1   
    23    12    17 1   
    24    12    54 1   
    25    13    14 1   
    26    13    15 1   
    27    13    16 1   
    28    14    55 1   
    29    14    56 1   
    30    14    57 1   
    31    15    58 1   
    32    15    59 1   
    33    15    60 1   
    34    16    61 1   
    35    16    62 1   
    36    16    63 1   
    37    17    18 2   
    38    17    20 1   
    39    19    21 2   
    40    19    22 1   
    41    19    33 1   
    42    20    26 1   
    43    20    64 1   
    44    22    26 1   
    45    22    27 1   
    46    22    65 1   
    47    23    24 1   
    48    23    28 ar  
    49    23    29 ar  
    50    24    26 1   
    51    24    66 1   
    52    24    67 1   
    53    25    30 ar  
    54    25    31 ar  
    55    25    68 1   
    56    26    69 1   
    57    27    70 1   
    58    28    30 ar  
    59    28    71 1   
    60    29    31 ar  
    61    29    72 1   
    62    30    73 1   
    63    31    74 1   
    64    32    34 2   
    65    32    35 1   
    66    32    94 1   
    67    33    35 1   
    68    33    37 1   
    69    35    36 1   
    70    35    75 1   
    71    36    38 1   
    72    36    39 1   
    73    36    40 1   
    74    37    40 1   
    75    37    76 1   
    76    37    77 1   
    77    38    78 1   
    78    38    79 1   
    79    38    80 1   
    80    39    81 1   
    81    39    82 1   
    82    39    83 1   
    83    41    42 1   
    84    41    84 1   
    85    41    85 1   
    86    41    86 1   
    87    42    43 1   
    88    42    44 1   
    89    42    87 1   
    90    43    88 1   
    91    43    89 1   
    92    43    90 1   
    93    44    91 1   
    94    44    92 1   
    95    44    94 1   
    96    93    94 1   
@<TRIPOS>SUBSTRUCTURE
     1 E14         1 TEMP              0 ****  ****    0 ROOT
