@<TRIPOS>MOLECULE
E15
   97    99     1     0     0
SMALL
bcc


@<TRIPOS>ATOM
      1 CBF         -5.1420    -0.5230     0.0580 c          1 E15       0.685100
      2 NAJ         -7.3440    -0.1920    -0.8280 n8         1 E15      -0.877800
      3 OAK         -5.4580    -0.5870     1.2360 o          1 E15      -0.613100
      4 CBM         -5.9770     0.2840    -0.9330 c3         1 E15       0.136800
      5 CBK         -5.7740     1.7680    -0.6890 ca         1 E15      -0.132300
      6 CAQ         -5.4280     4.5150    -0.2920 ca         1 E15      -0.122000
      7 CAT         -4.9020     3.9010    -1.4190 ca         1 E15      -0.131500
      8 CAU         -6.1280     3.7540     0.6380 ca         1 E15      -0.131500
      9 CAX         -5.0710     2.5360    -1.6100 ca         1 E15      -0.109500
     10 CAY         -6.3030     2.3930     0.4400 ca         1 E15      -0.109500
     11 N           -4.0770    -1.1490    -0.4680 ns         1 E15      -0.552900
     12 CA          -3.1800    -1.9830     0.2950 c3         1 E15       0.038700
     13 CB          -3.3660    -3.4980    -0.0070 c3         1 E15      -0.051000
     14 CAG         -3.1710    -3.8250    -1.4870 c3         1 E15      -0.087767
     15 CG1         -2.3690    -4.3030     0.8280 c3         1 E15      -0.087767
     16 CG2         -4.7850    -3.8960     0.4090 c3         1 E15      -0.087767
     17 C           -1.7570    -1.4990     0.0400 c          1 E15       0.662100
     18 O           -1.3550    -1.2640    -1.0900 o          1 E15      -0.609100
     19 CBI          2.7330    -1.6740     1.3410 c          1 E15       0.647100
     20 NBC         -1.0050    -1.3620     1.1430 ns         1 E15      -0.559900
     21 OAN          3.4140    -1.1450     2.2090 o          1 E15      -0.612100
     22 CBN          1.2850    -2.0380     1.6430 c3         1 E15       0.062100
     23 CBJ         -0.2820     1.5140     1.3330 ca         1 E15      -0.086300
     24 CBA          0.4780     0.3870     1.9750 c3         1 E15      -0.044100
     25 CAP         -1.6860     3.5650     0.0490 ca         1 E15      -0.129000
     26 CBO          0.3610    -0.9000     1.1460 c3         1 E15       0.081700
     27 OAO          1.1170    -2.2920     3.0050 oh         1 E15      -0.587800
     28 CAV         -1.6450     1.6970     1.5630 ca         1 E15      -0.117500
     29 CAW          0.3650     2.3750     0.4490 ca         1 E15      -0.117500
     30 CAR         -2.3450     2.7080     0.9200 ca         1 E15      -0.129000
     31 CAS         -0.3280     3.3980    -0.1830 ca         1 E15      -0.129000
     32 CBH          4.3150     0.1880    -0.3850 c          1 E15       0.662100
     33 NBR          3.2000    -1.9030     0.1020 n          1 E15      -0.455800
     34 OAM          3.2610     0.6800    -0.7540 o          1 E15      -0.588100
     35 CBQ          4.4790    -1.3310    -0.2700 c5         1 E15       0.026700
     36 CBU          4.9050    -2.0190    -1.5830 c5         1 E15       0.044100
     37 CAZ          2.4480    -2.5620    -0.9580 c5         1 E15       0.183100
     38 CAH          5.8810    -1.2120    -2.4240 c3         1 E15      -0.082100
     39 CAI          5.4860    -3.3960    -1.2720 c3         1 E15      -0.082100
     40 SBE          3.3250    -2.1830    -2.4890 ss         1 E15      -0.284200
     41 NBB          5.3990     0.8960    -0.0510 ns         1 E15      -0.567900
     42 CBL          5.4850     2.3450    -0.1630 c3         1 E15       0.120700
     43 CBS          6.5200     2.8680     0.8460 c3         1 E15      -0.075700
     44 CAB          7.9570     2.4850     0.5010 c3         1 E15      -0.087100
     45 CAC          6.3970     4.3790     1.0160 c3         1 E15      -0.087100
     46 CAA          5.7520     2.7580    -1.6070 c3         1 E15      -0.109100
     47 HNAJ        -7.6970    -0.0380     0.1090 hn         1 E15       0.355300
     48 HNAA        -7.9350     0.3450    -1.4500 hn         1 E15       0.355300
     49 HBM         -5.6330     0.0670    -1.9480 h1         1 E15       0.068700
     50 HAQ         -5.2960     5.5780    -0.1380 ha         1 E15       0.132000
     51 HAT         -4.3580     4.4830    -2.1520 ha         1 E15       0.133000
     52 HAU         -6.5410     4.2250     1.5210 ha         1 E15       0.133000
     53 HAX         -4.6560     2.0650    -2.4940 ha         1 E15       0.136500
     54 HAY         -6.8530     1.8190     1.1750 ha         1 E15       0.136500
     55 HN          -3.8730    -1.0160    -1.4460 hn         1 E15       0.332500
     56 HA          -3.4320    -1.8350     1.3470 h1         1 E15       0.085700
     57 HAG         -2.1570    -3.6260    -1.8300 hc         1 E15       0.039367
     58 HAGA        -3.3710    -4.8860    -1.6520 hc         1 E15       0.039367
     59 HAGB        -3.8610    -3.2690    -2.1240 hc         1 E15       0.039367
     60 HG1         -2.4640    -4.0840     1.8940 hc         1 E15       0.039367
     61 HG1A        -2.5500    -5.3710     0.6960 hc         1 E15       0.039367
     62 HG1B        -1.3330    -4.1150     0.5390 hc         1 E15       0.039367
     63 HG2         -5.5450    -3.3780    -0.1770 hc         1 E15       0.039367
     64 HG2A        -4.9270    -4.9670     0.2560 hc         1 E15       0.039367
     65 HG2B        -4.9660    -3.6820     1.4640 hc         1 E15       0.039367
     66 HNBC        -1.4230    -1.5610     2.0390 hn         1 E15       0.323500
     67 HBN          1.0030    -2.9500     1.1070 h1         1 E15       0.084700
     68 HBA          1.5280     0.6640     2.0700 hc         1 E15       0.060200
     69 HBAA         0.1060     0.2060     2.9870 hc         1 E15       0.060200
     70 HAP         -2.2310     4.3590    -0.4460 ha         1 E15       0.125000
     71 HBO          0.6220    -0.6570     0.1150 h1         1 E15       0.105700
     72 HOAO         1.7380    -1.7310     3.4900 ho         1 E15       0.431000
     73 HAV         -2.1670     1.0440     2.2530 ha         1 E15       0.135500
     74 HAW          1.4220     2.2370     0.2490 ha         1 E15       0.135500
     75 HAR         -3.4070     2.8290     1.0950 ha         1 E15       0.131000
     76 HAS          0.1940     4.0620    -0.8600 ha         1 E15       0.131000
     77 HBQ          5.2270    -1.5630     0.4940 h1         1 E15       0.089700
     78 HAZ          2.4050    -3.6390    -0.7870 h2         1 E15       0.082200
     79 HAZA         1.4290    -2.1870    -1.0550 h2         1 E15       0.082200
     80 HAH          6.8120    -1.0510    -1.8780 hc         1 E15       0.049867
     81 HAHA         6.1300    -1.7600    -3.3330 hc         1 E15       0.049867
     82 HAHB         5.4830    -0.2420    -2.7180 hc         1 E15       0.049867
     83 HAI          4.8080    -4.0070    -0.6770 hc         1 E15       0.049867
     84 HAIA         5.7050    -3.9320    -2.1950 hc         1 E15       0.049867
     85 HAIB         6.4190    -3.2920    -0.7140 hc         1 E15       0.049867
     86 HNBB         6.2150     0.3990     0.2690 hn         1 E15       0.313500
     87 HBL          4.5110     2.7440     0.1360 h1         1 E15       0.071700
     88 HBS          6.2650     2.4100     1.8080 hc         1 E15       0.056700
     89 HAB          8.2990     2.9930    -0.4020 hc         1 E15       0.035200
     90 HABA         8.6290     2.7750     1.3100 hc         1 E15       0.035200
     91 HABB         8.0930     1.4120     0.3460 hc         1 E15       0.035200
     92 HAC          5.3800     4.6680     1.2860 hc         1 E15       0.035200
     93 HACA         7.0620     4.7290     1.8060 hc         1 E15       0.035200
     94 HACB         6.6670     4.9130     0.1040 hc         1 E15       0.035200
     95 HAA          4.9480     2.4130    -2.2560 hc         1 E15       0.043033
     96 HAAA         5.8080     3.8430    -1.7050 hc         1 E15       0.043033
     97 HAAB         6.6870     2.3360    -1.9770 hc         1 E15       0.043033
@<TRIPOS>BOND
     1     1     3 2   
     2     1     4 1   
     3     1    11 1   
     4     2     4 1   
     5     2    47 1   
     6     2    48 1   
     7     4     5 1   
     8     4    49 1   
     9     5     9 ar  
    10     5    10 ar  
    11     6     7 ar  
    12     6     8 ar  
    13     6    50 1   
    14     7     9 ar  
    15     7    51 1   
    16     8    10 ar  
    17     8    52 1   
    18     9    53 1   
    19    10    54 1   
    20    11    12 1   
    21    11    55 1   
    22    12    13 1   
    23    12    17 1   
    24    12    56 1   
    25    13    14 1   
    26    13    15 1   
    27    13    16 1   
    28    14    57 1   
    29    14    58 1   
    30    14    59 1   
    31    15    60 1   
    32    15    61 1   
    33    15    62 1   
    34    16    63 1   
    35    16    64 1   
    36    16    65 1   
    37    17    18 2   
    38    17    20 1   
    39    19    21 2   
    40    19    22 1   
    41    19    33 1   
    42    20    26 1   
    43    20    66 1   
    44    22    26 1   
    45    22    27 1   
    46    22    67 1   
    47    23    24 1   
    48    23    28 ar  
    49    23    29 ar  
    50    24    26 1   
    51    24    68 1   
    52    24    69 1   
    53    25    30 ar  
    54    25    31 ar  
    55    25    70 1   
    56    26    71 1   
    57    27    72 1   
    58    28    30 ar  
    59    28    73 1   
    60    29    31 ar  
    61    29    74 1   
    62    30    75 1   
    63    31    76 1   
    64    32    34 2   
    65    32    35 1   
    66    32    41 1   
    67    33    35 1   
    68    33    37 1   
    69    35    36 1   
    70    35    77 1   
    71    36    38 1   
    72    36    39 1   
    73    36    40 1   
    74    37    40 1   
    75    37    78 1   
    76    37    79 1   
    77    38    80 1   
    78    38    81 1   
    79    38    82 1   
    80    39    83 1   
    81    39    84 1   
    82    39    85 1   
    83    41    42 1   
    84    41    86 1   
    85    42    43 1   
    86    42    46 1   
    87    42    87 1   
    88    43    44 1   
    89    43    45 1   
    90    43    88 1   
    91    44    89 1   
    92    44    90 1   
    93    44    91 1   
    94    45    92 1   
    95    45    93 1   
    96    45    94 1   
    97    46    95 1   
    98    46    96 1   
    99    46    97 1   
@<TRIPOS>SUBSTRUCTURE
     1 E15         1 TEMP              0 ****  ****    0 ROOT
