@<TRIPOS>MOLECULE
E15
   97    99     1     0     0
SMALL
No Charge or Current Charge


@<TRIPOS>ATOM
      1 CBF         -5.5880    -0.6440     0.2090 c          1 E15       0.618100
      2 NAJ         -7.9620    -0.1680    -0.7710 n8         1 E15      -0.988200
      3 OAK         -5.8830    -0.7230     1.3980 o          1 E15      -0.613100
      4 CBM         -6.4890     0.0940    -0.8550 c3         1 E15       0.136800
      5 CBK         -6.2470     1.6030    -0.8380 ca         1 E15      -0.132300
      6 CAQ         -5.8190     4.3950    -0.8320 ca         1 E15      -0.104000
      7 CAT         -5.5480     3.6440    -1.9870 ca         1 E15      -0.113500
      8 CAU         -6.2990     3.7550     0.3220 ca         1 E15      -0.113500
      9 CAX         -5.7600     2.2540    -1.9910 ca         1 E15      -0.091500
     10 CAY         -6.5130     2.3660     0.3200 ca         1 E15      -0.091500
     11 N           -4.4280    -1.2040    -0.2910 ns         1 E15      -0.485900
     12 CA          -3.4230    -1.9530     0.5020 c3         1 E15       0.038700
     13 CB          -3.6110    -3.5130     0.3700 c3         1 E15      -0.051000
     14 CAG         -3.4540    -3.9760    -1.1060 c3         1 E15      -0.087767
     15 CG1         -2.5630    -4.2670     1.2370 c3         1 E15      -0.087767
     16 CG2         -5.0230    -3.9270     0.8710 c3         1 E15      -0.087767
     17 C           -2.0030    -1.4560     0.0930 c          1 E15       0.595100
     18 O           -1.7350    -1.0580    -1.0340 o          1 E15      -0.609100
     19 CBI          2.7930    -1.5840     1.2620 c          1 E15       0.580100
     20 NBC         -1.0650    -1.4650     1.1050 ns         1 E15      -0.492900
     21 OAN          3.4960    -1.1640     2.1760 o          1 E15      -0.612100
     22 CBN          1.3150    -2.0020     1.5450 c3         1 E15       0.085300
     23 CBJ         -0.5320     1.4680     1.0320 ca         1 E15      -0.086300
     24 CBA          0.4130     0.4490     1.6610 c3         1 E15      -0.044100
     25 CAP         -2.2860     3.3220    -0.1640 ca         1 E15      -0.111000
     26 CBO          0.3060    -0.9490     0.9960 c3         1 E15       0.081700
     27 OAO          1.0820    -2.2300     2.9620 oh         1 E15      -0.650000
     28 CAV         -1.8040     1.7050     1.5910 ca         1 E15      -0.099500
     29 CAW         -0.1450     2.1650    -0.1290 ca         1 E15      -0.099500
     30 CAR         -2.6800     2.6280     0.9920 ca         1 E15      -0.111000
     31 CAS         -1.0190     3.0910    -0.7240 ca         1 E15      -0.111000
     32 CBH          4.6140     0.4980    -0.2910 c          1 E15       0.595100
     33 NBR          3.3090    -1.6660    -0.0500 n          1 E15      -0.388800
     34 OAM          3.6430     1.2290    -0.4390 o          1 E15      -0.588100
     35 CBQ          4.6460    -1.0620    -0.3840 c5         1 E15       0.026700
     36 CBU          5.0010    -1.5420    -1.8510 c5         1 E15       0.092000
     37 CAZ          2.6530    -2.4340    -1.1330 c5         1 E15       0.231000
     38 CAH          5.8430    -0.5610    -2.7120 c3         1 E15      -0.082100
     39 CAI          5.7330    -2.9110    -1.8470 c3         1 E15      -0.082100
     40 SBE          3.3670    -1.7460    -2.6840 ss         1 E15      -0.380000
     41 NBB          5.8690     0.9720     0.0420 ns         1 E15      -0.500900
     42 CBL          6.2110     2.3870     0.1910 c3         1 E15       0.120700
     43 CBS          7.3910     2.5650     1.1930 c3         1 E15      -0.075700
     44 CAB          8.7160     1.9070     0.7260 c3         1 E15      -0.087100
     45 CAC          7.6170     4.0440     1.5880 c3         1 E15      -0.087100
     46 CAA          6.4410     3.0260    -1.1990 c3         1 E15      -0.109100
     47 HNAJ        -8.3020     0.1800     0.1340 hn         1 E15       0.410500
     48 HNAA        -8.4410     0.4340    -1.4520 hn         1 E15       0.410500
     49 HBM         -6.1640    -0.2870    -1.8330 h1         1 E15       0.068700
     50 HAQ         -5.6540     5.4710    -0.8300 ha         1 E15       0.114000
     51 HAT         -5.1740     4.1390    -2.8810 ha         1 E15       0.115000
     52 HAU         -6.5080     4.3350     1.2180 ha         1 E15       0.115000
     53 HAX         -5.5490     1.6870    -2.8950 ha         1 E15       0.118500
     54 HAY         -6.8880     1.8840     1.2200 ha         1 E15       0.118500
     55 HN          -4.2370    -1.0530    -1.2750 hn         1 E15       0.332500
     56 HA          -3.5470    -1.6800     1.5580 h1         1 E15       0.085700
     57 HAG         -2.4570    -3.7410    -1.4960 hc         1 E15       0.039367
     58 HAGA        -3.5940    -5.0610    -1.1900 hc         1 E15       0.039367
     59 HAGB        -4.1950    -3.4970    -1.7570 hc         1 E15       0.039367
     60 HG1         -2.5970    -3.9260     2.2800 hc         1 E15       0.039367
     61 HG1A        -2.7560    -5.3470     1.2330 hc         1 E15       0.039367
     62 HG1B        -1.5450    -4.1200     0.8590 hc         1 E15       0.039367
     63 HG2         -5.8140    -3.5030     0.2410 hc         1 E15       0.039367
     64 HG2A        -5.1430    -5.0170     0.8540 hc         1 E15       0.039367
     65 HG2B        -5.1880    -3.5870     1.9010 hc         1 E15       0.039367
     66 HNBC        -1.3590    -1.8240     2.0060 hn         1 E15       0.323500
     67 HBN          1.1480    -2.9410     1.0040 h1         1 E15       0.084700
     68 HBA          1.4440     0.8150     1.5810 hc         1 E15       0.060200
     69 HBAA         0.2070     0.3610     2.7350 hc         1 E15       0.060200
     70 HAP         -2.9610     4.0390    -0.6250 ha         1 E15       0.107000
     71 HBO          0.5300    -0.8000    -0.0680 h1         1 E15       0.105700
     72 HOAO         1.8570    -1.8380     3.4320 ho         1 E15       0.470000
     73 HAV         -2.1180     1.1690     2.4840 ha         1 E15       0.117500
     74 HAW          0.8330     1.9870    -0.5720 ha         1 E15       0.117500
     75 HAR         -3.6620     2.8050     1.4240 ha         1 E15       0.113000
     76 HAS         -0.7150     3.6260    -1.6210 ha         1 E15       0.113000
     77 HBQ          5.4070    -1.4160     0.3250 h1         1 E15       0.089700
     78 HAZ          2.9280    -3.4880    -1.0070 h2         1 E15       0.082200
     79 HAZA         1.5700    -2.2720    -1.1110 h2         1 E15       0.082200
     80 HAH          6.8190    -0.3590    -2.2540 hc         1 E15       0.049867
     81 HAHA         6.0310    -0.9740    -3.7100 hc         1 E15       0.049867
     82 HAHB         5.3320     0.3980    -2.8600 hc         1 E15       0.049867
     83 HAI          5.1920    -3.6650    -1.2640 hc         1 E15       0.049867
     84 HAIA         5.8510    -3.3040    -2.8640 hc         1 E15       0.049867
     85 HAIB         6.7340    -2.8200    -1.4080 hc         1 E15       0.049867
     86 HNBB         6.6040     0.2880     0.1710 hn         1 E15       0.313500
     87 HBL          5.3380     2.8860     0.6360 h1         1 E15       0.071700
     88 HBS          7.0930     2.0480     2.1140 hc         1 E15       0.056700
     89 HAB          9.1100     2.4020    -0.1700 hc         1 E15       0.035200
     90 HABA         9.4770     1.9820     1.5120 hc         1 E15       0.035200
     91 HABB         8.5770     0.8440     0.4990 hc         1 E15       0.035200
     92 HAC          6.6810     4.5040     1.9270 hc         1 E15       0.035200
     93 HACA         8.3430     4.1160     2.4070 hc         1 E15       0.035200
     94 HACB         8.0030     4.6280     0.7450 hc         1 E15       0.035200
     95 HAA          5.5470     2.9170    -1.8240 hc         1 E15       0.043033
     96 HAAA         6.6530     4.0980    -1.1120 hc         1 E15       0.043033
     97 HAAB         7.2770     2.5480    -1.7220 hc         1 E15       0.043033
@<TRIPOS>BOND
     1     1     3 2   
     2     1     4 1   
     3     1    11 1   
     4     2     4 1   
     5     2    47 1   
     6     2    48 1   
     7     4     5 1   
     8     4    49 1   
     9     5     9 ar  
    10     5    10 ar  
    11     6     7 ar  
    12     6     8 ar  
    13     6    50 1   
    14     7     9 ar  
    15     7    51 1   
    16     8    10 ar  
    17     8    52 1   
    18     9    53 1   
    19    10    54 1   
    20    11    12 1   
    21    11    55 1   
    22    12    13 1   
    23    12    17 1   
    24    12    56 1   
    25    13    14 1   
    26    13    15 1   
    27    13    16 1   
    28    14    57 1   
    29    14    58 1   
    30    14    59 1   
    31    15    60 1   
    32    15    61 1   
    33    15    62 1   
    34    16    63 1   
    35    16    64 1   
    36    16    65 1   
    37    17    18 2   
    38    17    20 1   
    39    19    21 2   
    40    19    22 1   
    41    19    33 1   
    42    20    26 1   
    43    20    66 1   
    44    22    26 1   
    45    22    27 1   
    46    22    67 1   
    47    23    24 1   
    48    23    28 ar  
    49    23    29 ar  
    50    24    26 1   
    51    24    68 1   
    52    24    69 1   
    53    25    30 ar  
    54    25    31 ar  
    55    25    70 1   
    56    26    71 1   
    57    27    72 1   
    58    28    30 ar  
    59    28    73 1   
    60    29    31 ar  
    61    29    74 1   
    62    30    75 1   
    63    31    76 1   
    64    32    34 2   
    65    32    35 1   
    66    32    41 1   
    67    33    35 1   
    68    33    37 1   
    69    35    36 1   
    70    35    77 1   
    71    36    38 1   
    72    36    39 1   
    73    36    40 1   
    74    37    40 1   
    75    37    78 1   
    76    37    79 1   
    77    38    80 1   
    78    38    81 1   
    79    38    82 1   
    80    39    83 1   
    81    39    84 1   
    82    39    85 1   
    83    41    42 1   
    84    41    86 1   
    85    42    43 1   
    86    42    46 1   
    87    42    87 1   
    88    43    44 1   
    89    43    45 1   
    90    43    88 1   
    91    44    89 1   
    92    44    90 1   
    93    44    91 1   
    94    45    92 1   
    95    45    93 1   
    96    45    94 1   
    97    46    95 1   
    98    46    96 1   
    99    46    97 1   
@<TRIPOS>SUBSTRUCTURE
     1 E15         1 TEMP              0 ****  ****    0 ROOT
