@<TRIPOS>MOLECULE
E16
  100   102     1     0     0
SMALL
No Charge or Current Charge


@<TRIPOS>ATOM
      1 CBF         -5.5800    -0.4900     0.4980 c          1 E16       0.564100
      2 NAJ         -8.0050     0.1230    -0.2160 n8         1 E16      -0.977200
      3 OAK         -5.8040    -0.5830     1.7000 o          1 E16      -0.615100
      4 CBM         -6.5360     0.2750    -0.4910 c3         1 E16       0.141800
      5 CBK         -6.1650     1.7570    -0.5670 ca         1 E16      -0.077300
      6 CAQ         -5.5040     4.4990    -0.7260 ca         1 E16      -0.107000
      7 CAT         -5.4060     3.6830    -1.8660 ca         1 E16      -0.114000
      8 CAU         -5.9240     3.9460     0.4950 ca         1 E16      -0.114000
      9 CAX         -5.7350     2.3190    -1.7870 ca         1 E16      -0.087000
     10 CAY         -6.2530     2.5820     0.5750 ca         1 E16      -0.087000
     11 N           -4.4690    -1.0660    -0.0850 ns         1 E16      -0.485900
     12 CA          -3.4370    -1.8590     0.6290 c3         1 E16       0.035700
     13 CB          -3.6890    -3.4110     0.4980 c3         1 E16      -0.051000
     14 CAG         -3.6550    -3.8630    -0.9890 c3         1 E16      -0.086767
     15 CG1         -2.6110    -4.2110     1.2820 c3         1 E16      -0.086767
     16 CG2         -5.0760    -3.7820     1.0950 c3         1 E16      -0.086767
     17 C           -2.0310    -1.4110     0.1240 c          1 E16       0.595100
     18 O           -1.8300    -1.0090    -1.0170 o          1 E16      -0.610100
     19 CBI          2.8210    -1.8140     0.9550 c          1 E16       0.580100
     20 NBC         -1.0230    -1.4730     1.0640 ns         1 E16      -0.491900
     21 OAN          3.5890    -1.4060     1.8190 o          1 E16      -0.613100
     22 CBN          1.3440    -2.1560     1.3260 c3         1 E16       0.085300
     23 CBJ         -0.3190     1.4250     0.9580 ca         1 E16      -0.088300
     24 CBA          0.6090     0.3460     1.5070 c3         1 E16      -0.042100
     25 CAP         -2.0420     3.3980    -0.0840 ca         1 E16      -0.109000
     26 CBO          0.3640    -1.0410     0.8520 c3         1 E16       0.082700
     27 OAO          1.1880    -2.3870     2.7530 oh         1 E16      -0.650000
     28 CAV         -1.5250     1.7360     1.6180 ca         1 E16      -0.099500
     29 CAW          0.0170     2.1070    -0.2270 ca         1 E16      -0.099500
     30 CAR         -2.3850     2.7180     1.0970 ca         1 E16      -0.110000
     31 CAS         -0.8410     3.0920    -0.7460 ca         1 E16      -0.110000
     32 CBH          4.5390     0.1790    -0.8450 c          1 E16       0.596100
     33 NBR          3.2640    -1.9550    -0.3780 n          1 E16      -0.387800
     34 OAM          3.5600     0.8830    -1.0540 o          1 E16      -0.589100
     35 CBQ          4.5850    -1.3820    -0.8050 c5         1 E16       0.024700
     36 CBU          4.8810    -1.9790    -2.2370 c5         1 E16       0.094000
     37 CAZ          2.4950    -2.6770    -1.4200 c5         1 E16       0.231000
     38 CAH          5.7710    -1.1080    -3.1660 c3         1 E16      -0.082600
     39 CAI          5.5250    -3.3890    -2.1530 c3         1 E16      -0.082600
     40 SBE          3.2200    -2.1290    -3.0240 ss         1 E16      -0.382000
     41 NBB          5.7890     0.6920    -0.5520 ns         1 E16      -0.495900
     42 CBL          6.1120     2.1210    -0.4800 c3         1 E16       0.116700
     43 CBS          6.2540     2.6190     1.0080 c3         1 E16      -0.057000
     44 CAA          7.3270     2.3910    -1.3980 c3         1 E16      -0.105100
     45 CAB          6.5140     4.1510     1.0450 c3         1 E16      -0.086433
     46 CAC          4.9320     2.3440     1.7820 c3         1 E16      -0.086433
     47 CAD          7.4160     1.8940     1.7470 c3         1 E16      -0.086433
     48 HNAJ        -8.2320    -0.8770    -0.1510 hn         1 E16       0.406000
     49 HNAA        -8.1910     0.4660     0.7330 hn         1 E16       0.406000
     50 HBM         -6.3580    -0.1700    -1.4810 h1         1 E16       0.068700
     51 HAQ         -5.2500     5.5550    -0.7880 ha         1 E16       0.112000
     52 HAT         -5.0770     4.1090    -2.8110 ha         1 E16       0.113500
     53 HAU         -5.9970     4.5750     1.3790 ha         1 E16       0.113500
     54 HAX         -5.6610     1.7000    -2.6790 ha         1 E16       0.116500
     55 HAY         -6.5800     2.1670     1.5260 ha         1 E16       0.116500
     56 HN          -4.3330    -0.9030    -1.0770 hn         1 E16       0.333500
     57 HA          -3.4770    -1.5920     1.6930 h1         1 E16       0.086700
     58 HAG         -2.6800    -3.6600    -1.4470 hc         1 E16       0.038811
     59 HAGA        -3.8400    -4.9410    -1.0720 hc         1 E16       0.038811
     60 HAGB        -4.4220    -3.3500    -1.5820 hc         1 E16       0.038811
     61 HG1         -2.5560    -3.8780     2.3260 hc         1 E16       0.038811
     62 HG1A        -2.8440    -5.2830     1.2850 hc         1 E16       0.038811
     63 HG1B        -1.6180    -4.0990     0.8310 hc         1 E16       0.038811
     64 HG2         -5.8950    -3.3270     0.5250 hc         1 E16       0.038811
     65 HG2A        -5.2340    -4.8680     1.0790 hc         1 E16       0.038811
     66 HG2B        -5.1570    -3.4470     2.1360 hc         1 E16       0.038811
     67 HNBC        -1.2670    -1.8310     1.9800 hn         1 E16       0.323500
     68 HBN          1.0890    -3.0780     0.7890 h1         1 E16       0.084700
     69 HBA          1.6500     0.6500     1.3440 hc         1 E16       0.060200
     70 HBAA         0.4850     0.2640     2.5940 hc         1 E16       0.060200
     71 HAP         -2.7040     4.1600    -0.4860 ha         1 E16       0.109000
     72 HBO          0.5180    -0.9020    -0.2270 h1         1 E16       0.106700
     73 HOAO         2.0010    -2.0220     3.1780 ho         1 E16       0.471000
     74 HAV         -1.8000     1.2130     2.5320 ha         1 E16       0.116500
     75 HAW          0.9420     1.8730    -0.7490 ha         1 E16       0.116500
     76 HAR         -3.3160     2.9530     1.6080 ha         1 E16       0.114500
     77 HAS         -0.5760     3.6150    -1.6620 ha         1 E16       0.114500
     78 HBQ          5.3750    -1.6730    -0.1000 h1         1 E16       0.091700
     79 HAZ          2.6570    -3.7510    -1.2650 h2         1 E16       0.082200
     80 HAZA         1.4370    -2.3970    -1.3680 h2         1 E16       0.082200
     81 HAH          6.7590    -0.9320    -2.7260 hc         1 E16       0.050200
     82 HAHA         5.9260    -1.5970    -4.1360 hc         1 E16       0.050200
     83 HAHB         5.3150    -0.1330    -3.3750 hc         1 E16       0.050200
     84 HAI          4.9460    -4.0700    -1.5180 hc         1 E16       0.050200
     85 HAIA         5.6030    -3.8520    -3.1440 hc         1 E16       0.050200
     86 HAIB         6.5360    -3.3360    -1.7320 hc         1 E16       0.050200
     87 HNBB         6.5310     0.0280    -0.3680 hn         1 E16       0.309500
     88 HBL          5.2720     2.6770    -0.9200 h1         1 E16       0.081700
     89 HAA          7.1180     2.0310    -2.4130 hc         1 E16       0.040700
     90 HAAA         7.5440     3.4620    -1.4730 hc         1 E16       0.040700
     91 HAAB         8.2250     1.8750    -1.0400 hc         1 E16       0.040700
     92 HAB          5.7440     4.6930     0.4820 hc         1 E16       0.036589
     93 HABA         6.5020     4.5250     2.0760 hc         1 E16       0.036589
     94 HABB         7.4920     4.4050     0.6200 hc         1 E16       0.036589
     95 HAC          4.7340     1.2700     1.8710 hc         1 E16       0.036589
     96 HACA         4.9800     2.7530     2.7990 hc         1 E16       0.036589
     97 HACB         4.0770     2.8070     1.2750 hc         1 E16       0.036589
     98 HAD          8.3840     2.1050     1.2780 hc         1 E16       0.036589
     99 HADA         7.4780     2.2270     2.7910 hc         1 E16       0.036589
    100 HADB         7.2690     0.8080     1.7550 hc         1 E16       0.036589
@<TRIPOS>BOND
     1     1     3 2   
     2     1     4 1   
     3     1    11 1   
     4     2     4 1   
     5     2    48 1   
     6     2    49 1   
     7     4     5 1   
     8     4    50 1   
     9     5     9 ar  
    10     5    10 ar  
    11     6     7 ar  
    12     6     8 ar  
    13     6    51 1   
    14     7     9 ar  
    15     7    52 1   
    16     8    10 ar  
    17     8    53 1   
    18     9    54 1   
    19    10    55 1   
    20    11    12 1   
    21    11    56 1   
    22    12    13 1   
    23    12    17 1   
    24    12    57 1   
    25    13    14 1   
    26    13    15 1   
    27    13    16 1   
    28    14    58 1   
    29    14    59 1   
    30    14    60 1   
    31    15    61 1   
    32    15    62 1   
    33    15    63 1   
    34    16    64 1   
    35    16    65 1   
    36    16    66 1   
    37    17    18 2   
    38    17    20 1   
    39    19    21 2   
    40    19    22 1   
    41    19    33 1   
    42    20    26 1   
    43    20    67 1   
    44    22    26 1   
    45    22    27 1   
    46    22    68 1   
    47    23    24 1   
    48    23    28 ar  
    49    23    29 ar  
    50    24    26 1   
    51    24    69 1   
    52    24    70 1   
    53    25    30 ar  
    54    25    31 ar  
    55    25    71 1   
    56    26    72 1   
    57    27    73 1   
    58    28    30 ar  
    59    28    74 1   
    60    29    31 ar  
    61    29    75 1   
    62    30    76 1   
    63    31    77 1   
    64    32    34 2   
    65    32    35 1   
    66    32    41 1   
    67    33    35 1   
    68    33    37 1   
    69    35    36 1   
    70    35    78 1   
    71    36    38 1   
    72    36    39 1   
    73    36    40 1   
    74    37    40 1   
    75    37    79 1   
    76    37    80 1   
    77    38    81 1   
    78    38    82 1   
    79    38    83 1   
    80    39    84 1   
    81    39    85 1   
    82    39    86 1   
    83    41    42 1   
    84    41    87 1   
    85    42    43 1   
    86    42    44 1   
    87    42    88 1   
    88    43    45 1   
    89    43    46 1   
    90    43    47 1   
    91    44    89 1   
    92    44    90 1   
    93    44    91 1   
    94    45    92 1   
    95    45    93 1   
    96    45    94 1   
    97    46    95 1   
    98    46    96 1   
    99    46    97 1   
   100    47    98 1   
   101    47    99 1   
   102    47   100 1   
@<TRIPOS>SUBSTRUCTURE
     1 E16         1 TEMP              0 ****  ****    0 ROOT
