@<TRIPOS>MOLECULE
E16
  100   102     1     0     0
SMALL
abcg2


@<TRIPOS>ATOM
      1 CBF         -5.1990    -0.4560     0.2610 c          1 E16       0.564100
      2 NAJ         -7.4620     0.1150    -0.5800 n8         1 E16      -0.977200
      3 OAK         -5.4720    -0.4560     1.4520 o          1 E16      -0.615100
      4 CBM         -6.0380     0.3480    -0.7390 c3         1 E16       0.141800
      5 CBK         -5.7030     1.8150    -0.5930 ca         1 E16      -0.077300
      6 CAQ         -5.0900     4.5340    -0.3600 ca         1 E16      -0.107000
      7 CAT         -4.6370     3.8080    -1.4500 ca         1 E16      -0.114000
      8 CAU         -5.8460     3.9000     0.6190 ca         1 E16      -0.114000
      9 CAX         -4.9400     2.4570    -1.5620 ca         1 E16      -0.087000
     10 CAY         -6.1490     2.5500     0.5050 ca         1 E16      -0.087000
     11 N           -4.1840    -1.1520    -0.2750 ns         1 E16      -0.485900
     12 CA          -3.2670    -1.9600     0.4940 c3         1 E16       0.035700
     13 CB          -3.5100    -3.4850     0.3150 c3         1 E16      -0.051000
     14 CAG         -3.3540    -3.9310    -1.1400 c3         1 E16      -0.086767
     15 CG1         -2.5240    -4.2600     1.1920 c3         1 E16      -0.086767
     16 CG2         -4.9320    -3.8050     0.7830 c3         1 E16      -0.086767
     17 C           -1.8490    -1.5410     0.1170 c          1 E16       0.595100
     18 O           -1.5250    -1.3550    -1.0460 o          1 E16      -0.610100
     19 CBI          2.7170    -1.8590     1.0230 c          1 E16       0.580100
     20 NBC         -1.0120    -1.3970     1.1560 ns         1 E16      -0.491900
     21 OAN          3.4870    -1.3990     1.8570 o          1 E16      -0.613100
     22 CBN          1.2830    -2.1800     1.4250 c3         1 E16       0.085300
     23 CBJ         -0.1270     1.4490     1.3240 ca         1 E16      -0.088300
     24 CBA          0.6090     0.2660     1.8910 c3         1 E16      -0.042100
     25 CAP         -1.4890     3.6020     0.1670 ca         1 E16      -0.109000
     26 CBO          0.3680    -0.9910     1.0430 c3         1 E16       0.082700
     27 OAO          1.2110    -2.4780     2.7850 oh         1 E16      -0.650000
     28 CAV         -1.4690     1.6820     1.6170 ca         1 E16      -0.099500
     29 CAW          0.5220     2.3120     0.4440 ca         1 E16      -0.099500
     30 CAR         -2.1500     2.7430     1.0340 ca         1 E16      -0.110000
     31 CAS         -0.1490     3.3870    -0.1240 ca         1 E16      -0.110000
     32 CBH          4.1880     0.0230    -0.8050 c          1 E16       0.596100
     33 NBR          3.0720    -2.0500    -0.2600 n          1 E16      -0.387800
     34 OAM          3.1100     0.5370    -1.0600 o          1 E16      -0.589100
     35 CBQ          4.3310    -1.5010    -0.7220 c5         1 E16       0.024700
     36 CBU          4.6440    -2.1870    -2.0670 c5         1 E16       0.094000
     37 CAZ          2.2080    -2.6430    -1.2720 c5         1 E16       0.231000
     38 CAH          5.5760    -1.3970    -2.9720 c3         1 E16      -0.082600
     39 CAI          5.2110    -3.5800    -1.8090 c3         1 E16      -0.082600
     40 SBE          2.9980    -2.2960    -2.8580 ss         1 E16      -0.382000
     41 NBB          5.3180     0.6990    -0.5700 ns         1 E16      -0.495900
     42 CBL          5.4550     2.1440    -0.6300 c3         1 E16       0.116700
     43 CBS          5.8440     2.7180     0.7550 c3         1 E16      -0.057000
     44 CAA          6.4020     2.5110    -1.7690 c3         1 E16      -0.105100
     45 CAB          5.9050     4.2450     0.6690 c3         1 E16      -0.086433
     46 CAC          4.7720     2.3310     1.7770 c3         1 E16      -0.086433
     47 CAD          7.2030     2.1920     1.2230 c3         1 E16      -0.086433
     48 HNAJ        -7.6690    -0.8530    -0.7960 hn         1 E16       0.406000
     49 HNAA        -7.7290     0.2420     0.3890 hn         1 E16       0.406000
     50 HBM         -5.7730     0.0430    -1.7550 h1         1 E16       0.068700
     51 HAQ         -4.8560     5.5870    -0.2700 ha         1 E16       0.112000
     52 HAT         -4.0490     4.2910    -2.2200 ha         1 E16       0.113500
     53 HAU         -6.2040     4.4580     1.4750 ha         1 E16       0.113500
     54 HAX         -4.5860     1.9000    -2.4220 ha         1 E16       0.116500
     55 HAY         -6.7320     2.0750     1.2830 ha         1 E16       0.116500
     56 HN          -4.0090    -1.0710    -1.2640 hn         1 E16       0.333500
     57 HA          -3.4440    -1.7230     1.5460 h1         1 E16       0.086700
     58 HAG         -2.3410    -3.7890    -1.5140 hc         1 E16       0.038811
     59 HAGA        -3.5880    -4.9940    -1.2220 hc         1 E16       0.038811
     60 HAGB        -4.0380    -3.4020    -1.8070 hc         1 E16       0.038811
     61 HG1         -2.5960    -3.9620     2.2400 hc         1 E16       0.038811
     62 HG1A        -2.7410    -5.3280     1.1400 hc         1 E16       0.038811
     63 HG1B        -1.4880    -4.1280     0.8770 hc         1 E16       0.038811
     64 HG2         -5.6850    -3.3120     0.1680 hc         1 E16       0.038811
     65 HG2A        -5.1090    -4.8800     0.7170 hc         1 E16       0.038811
     66 HG2B        -5.0910    -3.5030     1.8190 hc         1 E16       0.038811
     67 HNBC        -1.3640    -1.5670     2.0850 hn         1 E16       0.323500
     68 HBN          0.9260    -3.0600     0.8780 h1         1 E16       0.084700
     69 HBA          1.6770     0.4840     1.9180 hc         1 E16       0.060200
     70 HBAA         0.2970     0.0790     2.9210 hc         1 E16       0.060200
     71 HAP         -2.0170     4.4340    -0.2810 ha         1 E16       0.109000
     72 HBO          0.5430    -0.7290    -0.0010 h1         1 E16       0.106700
     73 HOAO         1.8940    -1.9650     3.2380 ho         1 E16       0.471000
     74 HAV         -1.9940     1.0300     2.3050 ha         1 E16       0.116500
     75 HAW          1.5600     2.1310     0.1910 ha         1 E16       0.116500
     76 HAR         -3.1990     2.8990     1.2520 ha         1 E16       0.114500
     77 HAS          0.3750     4.0520    -0.7990 ha         1 E16       0.114500
     78 HBQ          5.1250    -1.7540    -0.0140 h1         1 E16       0.091700
     79 HAZ          2.1110    -3.7180    -1.1110 h2         1 E16       0.082200
     80 HAZA         1.2110    -2.2050    -1.2910 h2         1 E16       0.082200
     81 HAH          6.5420    -1.2470    -2.4880 hc         1 E16       0.050200
     82 HAHA         5.7590    -1.9510    -3.8930 hc         1 E16       0.050200
     83 HAHB         5.1730    -0.4220    -3.2430 hc         1 E16       0.050200
     84 HAI          4.5680    -4.1760    -1.1600 hc         1 E16       0.050200
     85 HAIA         5.3350    -4.1180    -2.7480 hc         1 E16       0.050200
     86 HAIB         6.1900    -3.5030    -1.3320 hc         1 E16       0.050200
     87 HNBB         6.1500     0.1690    -0.3620 hn         1 E16       0.309500
     88 HBL          4.4650     2.5340    -0.8740 h1         1 E16       0.081700
     89 HAA          6.0450     2.0770    -2.7030 hc         1 E16       0.040700
     90 HAAA         6.4600     3.5890    -1.9090 hc         1 E16       0.040700
     91 HAAB         7.4140     2.1410    -1.5970 hc         1 E16       0.040700
     92 HAB          4.9680     4.6640     0.2940 hc         1 E16       0.036589
     93 HABA         6.0830     4.6700     1.6590 hc         1 E16       0.036589
     94 HABB         6.7120     4.5900     0.0210 hc         1 E16       0.036589
     95 HAC          4.6970     1.2510     1.9040 hc         1 E16       0.036589
     96 HACA         5.0040     2.7640     2.7520 hc         1 E16       0.036589
     97 HACB         3.7870     2.6990     1.4770 hc         1 E16       0.036589
     98 HAD          8.0020     2.4480     0.5250 hc         1 E16       0.036589
     99 HADA         7.4620     2.6320     2.1880 hc         1 E16       0.036589
    100 HADB         7.2070     1.1080     1.3580 hc         1 E16       0.036589
@<TRIPOS>BOND
     1     1     3 2   
     2     1     4 1   
     3     1    11 1   
     4     2     4 1   
     5     2    48 1   
     6     2    49 1   
     7     4     5 1   
     8     4    50 1   
     9     5     9 ar  
    10     5    10 ar  
    11     6     7 ar  
    12     6     8 ar  
    13     6    51 1   
    14     7     9 ar  
    15     7    52 1   
    16     8    10 ar  
    17     8    53 1   
    18     9    54 1   
    19    10    55 1   
    20    11    12 1   
    21    11    56 1   
    22    12    13 1   
    23    12    17 1   
    24    12    57 1   
    25    13    14 1   
    26    13    15 1   
    27    13    16 1   
    28    14    58 1   
    29    14    59 1   
    30    14    60 1   
    31    15    61 1   
    32    15    62 1   
    33    15    63 1   
    34    16    64 1   
    35    16    65 1   
    36    16    66 1   
    37    17    18 2   
    38    17    20 1   
    39    19    21 2   
    40    19    22 1   
    41    19    33 1   
    42    20    26 1   
    43    20    67 1   
    44    22    26 1   
    45    22    27 1   
    46    22    68 1   
    47    23    24 1   
    48    23    28 ar  
    49    23    29 ar  
    50    24    26 1   
    51    24    69 1   
    52    24    70 1   
    53    25    30 ar  
    54    25    31 ar  
    55    25    71 1   
    56    26    72 1   
    57    27    73 1   
    58    28    30 ar  
    59    28    74 1   
    60    29    31 ar  
    61    29    75 1   
    62    30    76 1   
    63    31    77 1   
    64    32    34 2   
    65    32    35 1   
    66    32    41 1   
    67    33    35 1   
    68    33    37 1   
    69    35    36 1   
    70    35    78 1   
    71    36    38 1   
    72    36    39 1   
    73    36    40 1   
    74    37    40 1   
    75    37    79 1   
    76    37    80 1   
    77    38    81 1   
    78    38    82 1   
    79    38    83 1   
    80    39    84 1   
    81    39    85 1   
    82    39    86 1   
    83    41    42 1   
    84    41    87 1   
    85    42    43 1   
    86    42    44 1   
    87    42    88 1   
    88    43    45 1   
    89    43    46 1   
    90    43    47 1   
    91    44    89 1   
    92    44    90 1   
    93    44    91 1   
    94    45    92 1   
    95    45    93 1   
    96    45    94 1   
    97    46    95 1   
    98    46    96 1   
    99    46    97 1   
   100    47    98 1   
   101    47    99 1   
   102    47   100 1   
@<TRIPOS>SUBSTRUCTURE
     1 E16         1 TEMP              0 ****  ****    0 ROOT
