@<TRIPOS>MOLECULE
E17
  118   121     1     0     0
SMALL
No Charge or Current Charge


@<TRIPOS>ATOM
      1 CB1         -5.9140    -0.0110     1.0850 c          1 E17       0.601100
      2 OA1         -6.0510     0.1800     2.2880 o          1 E17      -0.576100
      3 CB0         -6.7170    -1.0860     0.2950 c3         1 E17       0.092800
      4 NB1         -6.1220    -2.4600     0.1950 n3         1 E17      -0.696600
      5 OA4         -5.0810    -4.7980    -1.1830 os         1 E17      -0.453000
      6 CA2         -7.0190    -3.4270    -0.5090 c6         1 E17       0.127300
      7 CA6         -4.7450    -2.4830    -0.3950 c6         1 E17       0.127300
      8 CA3         -6.3940    -4.8530    -0.5750 c6         1 E17       0.154600
      9 CA5         -4.1710    -3.9300    -0.4660 c6         1 E17       0.154600
     10 CBF         -3.4840     2.5830    -0.2840 c          1 E17       0.589100
     11 NAJ         -5.0230     0.7170     0.3250 ns         1 E17      -0.500900
     12 OAK         -3.8310     2.4830    -1.4550 o          1 E17      -0.601100
     13 CBM         -4.0510     1.6900     0.8570 c3         1 E17       0.083000
     14 CBK         -2.9090     0.9720     1.5830 ca         1 E17      -0.130300
     15 CAQ         -0.7560    -0.2810     2.9090 ca         1 E17      -0.094000
     16 CAT         -1.6820     0.4840     3.6370 ca         1 E17      -0.109500
     17 CAU         -0.9050    -0.4260     1.5200 ca         1 E17      -0.109500
     18 CAX         -2.7550     1.1090     2.9770 ca         1 E17      -0.093500
     19 CAY         -1.9780     0.1960     0.8590 ca         1 E17      -0.093500
     20 N           -2.4870     3.4460     0.1160 ns         1 E17      -0.469900
     21 CA          -1.4540     3.9850    -0.7920 c3         1 E17       0.032700
     22 CB          -1.4090     5.5520    -0.8120 c3         1 E17      -0.034000
     23 CAG         -1.1650     6.1420     0.6060 c3         1 E17      -0.088767
     24 CG1         -0.2760     6.0350    -1.7580 c3         1 E17      -0.088767
     25 CG2         -2.7610     6.0960    -1.3510 c3         1 E17      -0.088767
     26 C           -0.1200     3.3000    -0.3850 c          1 E17       0.574100
     27 O            0.2360     3.1680     0.7790 o          1 E17      -0.622100
     28 CBI          4.0470     1.4900    -0.2610 c          1 E17       0.577100
     29 NBC          0.6070     2.7650    -1.4220 ns         1 E17      -0.485900
     30 OAN          4.9380     1.0240    -0.9640 o          1 E17      -0.620100
     31 CBN          3.0400     2.5160    -0.8690 c3         1 E17       0.085300
     32 CBJ          0.5220     0.0050    -2.6070 ca         1 E17      -0.089300
     33 CBA          1.7890     0.8430    -2.4580 c3         1 E17      -0.047100
     34 CAP         -1.8300    -1.5360    -2.8330 ca         1 E17      -0.121000
     35 CBO          1.7040     1.8070    -1.2460 c3         1 E17       0.091700
     36 OAO          3.6020     3.1980    -2.0230 oh         1 E17      -0.646000
     37 CAV         -0.5310     0.4320    -3.4410 ca         1 E17      -0.101000
     38 CAW          0.3890    -1.2010    -1.8920 ca         1 E17      -0.101000
     39 CAR         -1.7040    -0.3350    -3.5500 ca         1 E17      -0.111500
     40 CAS         -0.7820    -1.9700    -2.0050 ca         1 E17      -0.111500
     41 CBH          4.0900    -1.4100     1.1420 c          1 E17       0.604100
     42 NBR          3.9460     1.1110     1.0960 n          1 E17      -0.388800
     43 OAM          2.9110    -1.6220     0.8870 o          1 E17      -0.600100
     44 CBQ          4.7260    -0.0610     1.6080 c5         1 E17       0.025700
     45 CBU          4.6980     0.0770     3.1750 c5         1 E17       0.092000
     46 CAZ          2.9160     1.6520     2.0210 c5         1 E17       0.229000
     47 CAH          4.9780    -1.2310     3.9630 c3         1 E17      -0.082600
     48 CAI          5.6830     1.1630     3.6810 c3         1 E17      -0.082600
     49 SBE          2.9800     0.6210     3.5580 ss         1 E17      -0.390000
     50 NBB          5.0780    -2.3630     0.9830 ns         1 E17      -0.494900
     51 CBL          4.8510    -3.7320     0.5090 c3         1 E17       0.116700
     52 CBS          5.2490    -3.9060    -1.0050 c3         1 E17      -0.056000
     53 CAA          5.5320    -4.7060     1.4990 c3         1 E17      -0.106100
     54 CAB          4.9210    -5.3470    -1.4900 c3         1 E17      -0.086100
     55 CAC          4.4300    -2.9160    -1.8840 c3         1 E17      -0.086100
     56 CAD          6.7620    -3.6300    -1.2370 c3         1 E17      -0.086100
     57 HB0         -7.7020    -1.1490     0.7760 h1         1 E17       0.046200
     58 HB0A        -6.8880    -0.6840    -0.7120 h1         1 E17       0.046200
     59 HA2         -7.9900    -3.4910     0.0030 h1         1 E17       0.042200
     60 HA2A        -7.2180    -3.0840    -1.5350 h1         1 E17       0.042200
     61 HA6         -4.7570    -2.0590    -1.4100 h1         1 E17       0.042200
     62 HA6A        -4.0560    -1.8710     0.2050 h1         1 E17       0.042200
     63 HA3         -7.0380    -5.5170    -1.1670 h1         1 E17       0.053200
     64 HA3A        -6.3090    -5.2720     0.4380 h1         1 E17       0.053200
     65 HA5         -4.0170    -4.3220     0.5490 h1         1 E17       0.053200
     66 HA5A        -3.1990    -3.9230    -0.9800 h1         1 E17       0.053200
     67 HNAJ        -4.9980     0.5170    -0.6680 hn         1 E17       0.335500
     68 HBM         -4.5680     2.3630     1.5540 h1         1 E17       0.090700
     69 HAQ          0.0770    -0.7600     3.4190 ha         1 E17       0.119000
     70 HAT         -1.5670     0.5960     4.7130 ha         1 E17       0.123000
     71 HAU         -0.1870    -1.0170     0.9580 ha         1 E17       0.123000
     72 HAX         -3.4630     1.7030     3.5510 ha         1 E17       0.117500
     73 HAY         -2.0780     0.0810    -0.2180 ha         1 E17       0.117500
     74 HN          -2.2550     3.4190     1.1030 hn         1 E17       0.325500
     75 HA          -1.6760     3.6460    -1.8120 h1         1 E17       0.083700
     76 HAG         -0.2000     5.8190     1.0130 hc         1 E17       0.040367
     77 HAGA        -1.1590     7.2380     0.5740 hc         1 E17       0.040367
     78 HAGB        -1.9500     5.8360     1.3080 hc         1 E17       0.040367
     79 HG1         -0.4040     5.6240    -2.7670 hc         1 E17       0.040367
     80 HG1A        -0.2740     7.1290    -1.8400 hc         1 E17       0.040367
     81 HG1B         0.7110     5.7320    -1.3890 hc         1 E17       0.040367
     82 HG2         -3.5930     5.8220    -0.6910 hc         1 E17       0.040367
     83 HG2A        -2.7430     7.1910    -1.4250 hc         1 E17       0.040367
     84 HG2B        -2.9750     5.6950    -2.3490 hc         1 E17       0.040367
     85 HNBC         0.2600     2.9250    -2.3600 hn         1 E17       0.326500
     86 HBN          2.8290     3.2510    -0.0820 h1         1 E17       0.095700
     87 HBA          2.6500     0.1760    -2.3350 hc         1 E17       0.065200
     88 HBAA         1.9780     1.4160    -3.3740 hc         1 E17       0.065200
     89 HAP         -2.7360    -2.1320    -2.9240 ha         1 E17       0.109000
     90 HBO          1.4270     1.1720    -0.3940 h1         1 E17       0.090700
     91 HOAO         4.3560     2.6410    -2.3290 ho         1 E17       0.468000
     92 HAV         -0.4440     1.3590    -4.0030 ha         1 E17       0.122500
     93 HAW          1.1940    -1.5440    -1.2450 ha         1 E17       0.122500
     94 HAR         -2.5150     0.0020    -4.1930 ha         1 E17       0.116000
     95 HAS         -0.8750    -2.9010    -1.4500 ha         1 E17       0.116000
     96 HBQ          5.7600    -0.0290     1.2410 h1         1 E17       0.088700
     97 HAZ          3.1850     2.6930     2.2430 h2         1 E17       0.091700
     98 HAZA         1.9290     1.5570     1.5590 h2         1 E17       0.091700
     99 HAH          5.9670    -1.6400     3.7200 hc         1 E17       0.050033
    100 HAHA         4.9520    -1.0540     5.0450 hc         1 E17       0.050033
    101 HAHB         4.2320    -2.0060     3.7520 hc         1 E17       0.050033
    102 HAI          5.5150     2.1290     3.1890 hc         1 E17       0.050033
    103 HAIA         5.5810     1.3240     4.7610 hc         1 E17       0.050033
    104 HAIB         6.7230     0.8740     3.4850 hc         1 E17       0.050033
    105 HNBB         6.0280    -2.0840     1.1930 hn         1 E17       0.311500
    106 HBL          3.7740    -3.9360     0.5800 h1         1 E17       0.078700
    107 HAA          6.6210    -4.5830     1.5020 hc         1 E17       0.041033
    108 HAAA         5.1730    -4.5190     2.5180 hc         1 E17       0.041033
    109 HAAB         5.2990    -5.7500     1.2600 hc         1 E17       0.041033
    110 HAB          3.8730    -5.5990    -1.2890 hc         1 E17       0.036811
    111 HABA         5.0900    -5.4440    -2.5700 hc         1 E17       0.036811
    112 HABB         5.5540    -6.0930    -0.9960 hc         1 E17       0.036811
    113 HAC          4.6780    -1.8730    -1.6530 hc         1 E17       0.036811
    114 HACA         4.6360    -3.0710    -2.9500 hc         1 E17       0.036811
    115 HACB         3.3530    -3.0520    -1.7280 hc         1 E17       0.036811
    116 HAD          7.3890    -4.3430    -0.6890 hc         1 E17       0.036811
    117 HADA         7.0150    -3.7220    -2.3000 hc         1 E17       0.036811
    118 HADB         7.0380    -2.6180    -0.9180 hc         1 E17       0.036811
@<TRIPOS>BOND
     1     1     2 2   
     2     1     3 1   
     3     1    11 1   
     4     3     4 1   
     5     3    57 1   
     6     3    58 1   
     7     4     6 1   
     8     4     7 1   
     9     5     8 1   
    10     5     9 1   
    11     6     8 1   
    12     6    59 1   
    13     6    60 1   
    14     7     9 1   
    15     7    61 1   
    16     7    62 1   
    17     8    63 1   
    18     8    64 1   
    19     9    65 1   
    20     9    66 1   
    21    10    12 2   
    22    10    13 1   
    23    10    20 1   
    24    11    13 1   
    25    11    67 1   
    26    13    14 1   
    27    13    68 1   
    28    14    18 ar  
    29    14    19 ar  
    30    15    16 ar  
    31    15    17 ar  
    32    15    69 1   
    33    16    18 ar  
    34    16    70 1   
    35    17    19 ar  
    36    17    71 1   
    37    18    72 1   
    38    19    73 1   
    39    20    21 1   
    40    20    74 1   
    41    21    22 1   
    42    21    26 1   
    43    21    75 1   
    44    22    23 1   
    45    22    24 1   
    46    22    25 1   
    47    23    76 1   
    48    23    77 1   
    49    23    78 1   
    50    24    79 1   
    51    24    80 1   
    52    24    81 1   
    53    25    82 1   
    54    25    83 1   
    55    25    84 1   
    56    26    27 2   
    57    26    29 1   
    58    28    30 2   
    59    28    31 1   
    60    28    42 1   
    61    29    35 1   
    62    29    85 1   
    63    31    35 1   
    64    31    36 1   
    65    31    86 1   
    66    32    33 1   
    67    32    37 ar  
    68    32    38 ar  
    69    33    35 1   
    70    33    87 1   
    71    33    88 1   
    72    34    39 ar  
    73    34    40 ar  
    74    34    89 1   
    75    35    90 1   
    76    36    91 1   
    77    37    39 ar  
    78    37    92 1   
    79    38    40 ar  
    80    38    93 1   
    81    39    94 1   
    82    40    95 1   
    83    41    43 2   
    84    41    44 1   
    85    41    50 1   
    86    42    44 1   
    87    42    46 1   
    88    44    45 1   
    89    44    96 1   
    90    45    47 1   
    91    45    48 1   
    92    45    49 1   
    93    46    49 1   
    94    46    97 1   
    95    46    98 1   
    96    47    99 1   
    97    47   100 1   
    98    47   101 1   
    99    48   102 1   
   100    48   103 1   
   101    48   104 1   
   102    50    51 1   
   103    50   105 1   
   104    51    52 1   
   105    51    53 1   
   106    51   106 1   
   107    52    54 1   
   108    52    55 1   
   109    52    56 1   
   110    53   107 1   
   111    53   108 1   
   112    53   109 1   
   113    54   110 1   
   114    54   111 1   
   115    54   112 1   
   116    55   113 1   
   117    55   114 1   
   118    55   115 1   
   119    56   116 1   
   120    56   117 1   
   121    56   118 1   
@<TRIPOS>SUBSTRUCTURE
     1 E17         1 TEMP              0 ****  ****    0 ROOT
