@<TRIPOS>MOLECULE
E17
  118   121     1     0     0
SMALL
bcc


@<TRIPOS>ATOM
      1 CB1         -5.1990    -0.3910     0.1050 c          1 E17       0.668100
      2 OA1         -5.5950    -0.3060     1.2550 o          1 E17      -0.576100
      3 CB0         -5.6420    -1.4980    -0.8390 c3         1 E17       0.092800
      4 NB1         -5.7900    -2.7530    -0.1540 n3         1 E17      -0.696600
      5 OA4         -5.4590    -5.5360     0.2700 os         1 E17      -0.406600
      6 CA2         -6.4980    -3.7290    -0.9610 c6         1 E17       0.127300
      7 CA6         -4.5220    -3.3020     0.2940 c6         1 E17       0.127300
      8 CA3         -6.6910    -5.0090    -0.1710 c6         1 E17       0.131400
      9 CA5         -4.7600    -4.5940     1.0520 c6         1 E17       0.131400
     10 CBF         -3.1330     2.5580    -0.6880 c          1 E17       0.656100
     11 NAJ         -4.3660     0.5040    -0.4510 ns         1 E17      -0.567900
     12 OAK         -3.1690     2.3720    -1.8890 o          1 E17      -0.601100
     13 CBM         -3.7900     1.5860     0.3000 c3         1 E17       0.083000
     14 CBK         -2.7450     1.1110     1.2920 ca         1 E17      -0.130300
     15 CAQ         -0.7530     0.3270     3.0740 ca         1 E17      -0.112000
     16 CAT         -1.8600     1.0270     3.5310 ca         1 E17      -0.127500
     17 CAU         -0.6440     0.0120     1.7240 ca         1 E17      -0.127500
     18 CAX         -2.8540     1.4170     2.6410 ca         1 E17      -0.111500
     19 CAY         -1.6380     0.3970     0.8400 ca         1 E17      -0.111500
     20 N           -2.4940     3.5950    -0.1040 ns         1 E17      -0.536900
     21 CA          -1.3680     4.2440    -0.7510 c3         1 E17       0.032700
     22 CB          -1.2800     5.7550    -0.4470 c3         1 E17      -0.034000
     23 CAG         -1.3370     6.0740     1.0480 c3         1 E17      -0.088767
     24 CG1          0.0280     6.2840    -1.0370 c3         1 E17      -0.088767
     25 CG2         -2.4600     6.4360    -1.1430 c3         1 E17      -0.088767
     26 C           -0.1440     3.4270    -0.3270 c          1 E17       0.641100
     27 O            0.1800     3.3280     0.8480 o          1 E17      -0.622100
     28 CBI          3.8790     1.4880    -0.3000 c          1 E17       0.644100
     29 NBC          0.4720     2.7600    -1.3140 ns         1 E17      -0.552900
     30 OAN          4.6560     0.9530    -1.0830 o          1 E17      -0.620100
     31 CBN          2.8710     2.5030    -0.8280 c3         1 E17       0.062100
     32 CBJ          0.3580    -0.0730    -2.3480 ca         1 E17      -0.089300
     33 CBA          1.5740     0.8100    -2.2570 c3         1 E17      -0.047100
     34 CAP         -1.8960    -1.7320    -2.4850 ca         1 E17      -0.139000
     35 CBO          1.5180     1.7900    -1.0790 c3         1 E17       0.091700
     36 OAO          3.3610     3.1180    -1.9810 oh         1 E17      -0.583800
     37 CAV         -0.7640     0.3070    -3.0790 ca         1 E17      -0.119000
     38 CAW          0.3320    -1.3000    -1.6840 ca         1 E17      -0.119000
     39 CAR         -1.8840    -0.5120    -3.1470 ca         1 E17      -0.129500
     40 CAS         -0.7830    -2.1230    -1.7510 ca         1 E17      -0.129500
     41 CBH          4.0230    -1.2450     0.9310 c          1 E17       0.671100
     42 NBR          3.8510     1.1710     1.0050 n          1 E17      -0.455800
     43 OAM          2.8170    -1.3470     0.7830 o          1 E17      -0.600100
     44 CBQ          4.6490     0.0500     1.4610 c5         1 E17       0.025700
     45 CBU          4.7010     0.1340     3.0020 c5         1 E17       0.044100
     46 CAZ          3.0350     1.8410     2.0100 c5         1 E17       0.181100
     47 CAH          4.9430    -1.1980     3.6960 c3         1 E17      -0.082600
     48 CAI          5.7640     1.1450     3.4240 c3         1 E17      -0.082600
     49 SBE          3.0340     0.7430     3.4390 ss         1 E17      -0.294200
     50 NBB          4.9080    -2.2160     0.6710 ns         1 E17      -0.561900
     51 CBL          4.5670    -3.5690     0.2650 c3         1 E17       0.116700
     52 CBS          4.9250    -3.8220    -1.2230 c3         1 E17      -0.056000
     53 CAA          5.2050    -4.5440     1.2490 c3         1 E17      -0.106100
     54 CAB          4.4700    -5.2290    -1.6190 c3         1 E17      -0.086100
     55 CAC          4.1760    -2.8150    -2.0990 c3         1 E17      -0.086100
     56 CAD          6.4280    -3.6840    -1.4690 c3         1 E17      -0.086100
     57 HB0         -6.6140    -1.2020    -1.2460 h1         1 E17       0.046200
     58 HB0A        -4.9550    -1.5580    -1.7000 h1         1 E17       0.046200
     59 HA2         -7.4780    -3.3290    -1.2360 h1         1 E17       0.042200
     60 HA2A        -5.9650    -3.9560    -1.9010 h1         1 E17       0.042200
     61 HA6         -3.8360    -3.4890    -0.5500 h1         1 E17       0.042200
     62 HA6A        -4.0210    -2.5980     0.9630 h1         1 E17       0.042200
     63 HA3         -7.1660    -5.7670    -0.7960 h1         1 E17       0.053200
     64 HA3A        -7.3540    -4.8130     0.6830 h1         1 E17       0.053200
     65 HA5         -5.3130    -4.3730     1.9760 h1         1 E17       0.053200
     66 HA5A        -3.8060    -5.0430     1.3310 h1         1 E17       0.053200
     67 HNAJ        -4.0210     0.3590    -1.3880 hn         1 E17       0.335500
     68 HBM         -4.5760     2.1200     0.8440 h1         1 E17       0.090700
     69 HAQ          0.0270     0.0290     3.7620 ha         1 E17       0.137000
     70 HAT         -1.9550     1.2680     4.5820 ha         1 E17       0.141000
     71 HAU          0.2250    -0.5240     1.3610 ha         1 E17       0.141000
     72 HAX         -3.7190     1.9610     3.0000 ha         1 E17       0.135500
     73 HAY         -1.5420     0.1440    -0.2100 ha         1 E17       0.135500
     74 HN          -2.4360     3.5660     0.9050 hn         1 E17       0.325500
     75 HA          -1.5150     4.1460    -1.8280 h1         1 E17       0.083700
     76 HAG         -0.5080     5.6360     1.6000 hc         1 E17       0.040367
     77 HAGA        -1.2930     7.1560     1.1870 hc         1 E17       0.040367
     78 HAGB        -2.2710     5.7370     1.5040 hc         1 E17       0.040367
     79 HG1          0.1070     6.0650    -2.1050 hc         1 E17       0.040367
     80 HG1A         0.0850     7.3670    -0.9220 hc         1 E17       0.040367
     81 HG1B         0.9040     5.8600    -0.5420 hc         1 E17       0.040367
     82 HG2         -3.4150     6.0610    -0.7710 hc         1 E17       0.040367
     83 HG2A        -2.4340     7.5130    -0.9700 hc         1 E17       0.040367
     84 HG2B        -2.4330     6.2740    -2.2230 hc         1 E17       0.040367
     85 HNBC         0.1900     2.9350    -2.2650 hn         1 E17       0.326500
     86 HBN          2.7040     3.2870    -0.0850 h1         1 E17       0.095700
     87 HBA          2.4570     0.1800    -2.1450 hc         1 E17       0.065200
     88 HBAA         1.7030     1.3680    -3.1880 hc         1 E17       0.065200
     89 HAP         -2.7600    -2.3810    -2.5460 ha         1 E17       0.127000
     90 HBO          1.2520     1.2280    -0.1800 h1         1 E17       0.090700
     91 HOAO         3.9250     2.4790    -2.4380 ho         1 E17       0.429000
     92 HAV         -0.7670     1.2470    -3.6190 ha         1 E17       0.140500
     93 HAW          1.1930    -1.6120    -1.1050 ha         1 E17       0.140500
     94 HAR         -2.7430    -0.1990    -3.7270 ha         1 E17       0.134000
     95 HAS         -0.7820    -3.0730    -1.2310 ha         1 E17       0.134000
     96 HBQ          5.6700     0.1460     1.0830 h1         1 E17       0.088700
     97 HAZ          3.4680     2.8100     2.2680 h2         1 E17       0.091700
     98 HAZA         2.0050     1.9960     1.6950 h2         1 E17       0.091700
     99 HAH          5.9050    -1.6170     3.3970 hc         1 E17       0.050033
    100 HAHA         4.9760    -1.0510     4.7760 hc         1 E17       0.050033
    101 HAHB         4.1660    -1.9320     3.4830 hc         1 E17       0.050033
    102 HAI          5.6080     2.1260     2.9740 hc         1 E17       0.050033
    103 HAIA         5.7620     1.2680     4.5060 hc         1 E17       0.050033
    104 HAIB         6.7550     0.7960     3.1230 hc         1 E17       0.050033
    105 HNBB         5.8850    -2.0210     0.8300 hn         1 E17       0.311500
    106 HBL          3.4810    -3.6520     0.3530 h1         1 E17       0.078700
    107 HAA          6.2940    -4.4690     1.2440 hc         1 E17       0.041033
    108 HAAA         4.8620    -4.3300     2.2610 hc         1 E17       0.041033
    109 HAAB         4.9410    -5.5750     1.0230 hc         1 E17       0.041033
    110 HAB          3.4100    -5.3780    -1.3970 hc         1 E17       0.036811
    111 HABA         4.6060    -5.3790    -2.6910 hc         1 E17       0.036811
    112 HABB         5.0320    -6.0110    -1.1080 hc         1 E17       0.036811
    113 HAC          4.4580    -1.7860    -1.8750 hc         1 E17       0.036811
    114 HACA         4.3920    -2.9950    -3.1540 hc         1 E17       0.036811
    115 HACB         3.0960    -2.9020    -1.9640 hc         1 E17       0.036811
    116 HAD          7.0070    -4.3970    -0.8810 hc         1 E17       0.036811
    117 HADA         6.6550    -3.8700    -2.5210 hc         1 E17       0.036811
    118 HADB         6.7910    -2.6800    -1.2370 hc         1 E17       0.036811
@<TRIPOS>BOND
     1     1     2 2   
     2     1     3 1   
     3     1    11 1   
     4     3     4 1   
     5     3    57 1   
     6     3    58 1   
     7     4     6 1   
     8     4     7 1   
     9     5     8 1   
    10     5     9 1   
    11     6     8 1   
    12     6    59 1   
    13     6    60 1   
    14     7     9 1   
    15     7    61 1   
    16     7    62 1   
    17     8    63 1   
    18     8    64 1   
    19     9    65 1   
    20     9    66 1   
    21    10    12 2   
    22    10    13 1   
    23    10    20 1   
    24    11    13 1   
    25    11    67 1   
    26    13    14 1   
    27    13    68 1   
    28    14    18 ar  
    29    14    19 ar  
    30    15    16 ar  
    31    15    17 ar  
    32    15    69 1   
    33    16    18 ar  
    34    16    70 1   
    35    17    19 ar  
    36    17    71 1   
    37    18    72 1   
    38    19    73 1   
    39    20    21 1   
    40    20    74 1   
    41    21    22 1   
    42    21    26 1   
    43    21    75 1   
    44    22    23 1   
    45    22    24 1   
    46    22    25 1   
    47    23    76 1   
    48    23    77 1   
    49    23    78 1   
    50    24    79 1   
    51    24    80 1   
    52    24    81 1   
    53    25    82 1   
    54    25    83 1   
    55    25    84 1   
    56    26    27 2   
    57    26    29 1   
    58    28    30 2   
    59    28    31 1   
    60    28    42 1   
    61    29    35 1   
    62    29    85 1   
    63    31    35 1   
    64    31    36 1   
    65    31    86 1   
    66    32    33 1   
    67    32    37 ar  
    68    32    38 ar  
    69    33    35 1   
    70    33    87 1   
    71    33    88 1   
    72    34    39 ar  
    73    34    40 ar  
    74    34    89 1   
    75    35    90 1   
    76    36    91 1   
    77    37    39 ar  
    78    37    92 1   
    79    38    40 ar  
    80    38    93 1   
    81    39    94 1   
    82    40    95 1   
    83    41    43 2   
    84    41    44 1   
    85    41    50 1   
    86    42    44 1   
    87    42    46 1   
    88    44    45 1   
    89    44    96 1   
    90    45    47 1   
    91    45    48 1   
    92    45    49 1   
    93    46    49 1   
    94    46    97 1   
    95    46    98 1   
    96    47    99 1   
    97    47   100 1   
    98    47   101 1   
    99    48   102 1   
   100    48   103 1   
   101    48   104 1   
   102    50    51 1   
   103    50   105 1   
   104    51    52 1   
   105    51    53 1   
   106    51   106 1   
   107    52    54 1   
   108    52    55 1   
   109    52    56 1   
   110    53   107 1   
   111    53   108 1   
   112    53   109 1   
   113    54   110 1   
   114    54   111 1   
   115    54   112 1   
   116    55   113 1   
   117    55   114 1   
   118    55   115 1   
   119    56   116 1   
   120    56   117 1   
   121    56   118 1   
@<TRIPOS>SUBSTRUCTURE
     1 E17         1 TEMP              0 ****  ****    0 ROOT
