@<TRIPOS>MOLECULE
E18
   37    37     1     0     0
SMALL
No Charge or Current Charge


@<TRIPOS>ATOM
      1 O20         -2.5410    -3.9870    -0.0130 o          1 E18      -0.696533
      2 S19         -2.7270    -2.5260    -0.0110 s6         1 E18       1.500300
      3 O21         -3.3420    -1.9980    -1.2410 o          1 E18      -0.696533
      4 O22         -3.3170    -1.9970     1.2300 o          1 E18      -0.696533
      5 O18         -1.1770    -1.9240    -0.0280 os         1 E18      -0.427700
      6 N17         -1.0840    -0.4910    -0.0290 n2         1 E18      -0.211700
      7 C13          0.1240    -0.0240    -0.0410 c2         1 E18       0.350200
      8 S1           1.5710    -1.1180    -0.0560 ss         1 E18      -0.262200
      9 C1           3.0360     0.0170    -0.0700 c3         1 E18       0.017600
     10 C2           4.3490    -0.7960    -0.0890 c3         1 E18       0.172800
     11 N18          5.5870     0.0210    -0.2100 n3         1 E18      -0.714600
     12 C20          5.7930     0.9640     0.9160 c3         1 E18       0.151100
     13 C19          6.7830    -0.8150    -0.4530 c3         1 E18       0.151100
     14 CB           0.3740     1.4820    -0.0440 c3         1 E18      -0.058400
     15 CG          -0.8870     2.3450    -0.0330 ca         1 E18      -0.061300
     16 CD2         -1.4620     2.7480     1.1880 ca         1 E18      -0.086000
     17 CE2         -2.6210     3.5440     1.1980 ca         1 E18      -0.110000
     18 CZ          -3.2120     3.9410    -0.0130 ca         1 E18      -0.112000
     19 CE1         -2.6440     3.5420    -1.2340 ca         1 E18      -0.110000
     20 CD1         -1.4850     2.7460    -1.2450 ca         1 E18      -0.086000
     21 HB1C         0.9870     1.7470     0.8250 hc         1 E18       0.045700
     22 HB2C         0.9710     1.7460    -0.9240 hc         1 E18       0.045700
     23 H11C         2.9940     0.6530    -0.9620 h1         1 E18       0.058700
     24 H12C         3.0040     0.6490     0.8250 h1         1 E18       0.058700
     25 H21C         4.3920    -1.4100     0.8210 h1         1 E18       0.045200
     26 H22C         4.2910    -1.4900    -0.9390 h1         1 E18       0.045200
     27 H201         5.8720     0.4230     1.8690 h1         1 E18       0.026867
     28 H202         6.7160     1.5410     0.7720 h1         1 E18       0.026867
     29 H203         4.9650     1.6800     0.9910 h1         1 E18       0.026867
     30 H191         6.6430    -1.4450    -1.3420 h1         1 E18       0.026867
     31 H192         7.6680    -0.1880    -0.6210 h1         1 E18       0.026867
     32 H193         6.9830    -1.4710     0.4060 h1         1 E18       0.026867
     33 HD2         -1.0120     2.4440     2.1310 ha         1 E18       0.109500
     34 HD1         -1.0520     2.4400    -2.1950 ha         1 E18       0.109500
     35 HE2         -3.0610     3.8510     2.1440 ha         1 E18       0.102500
     36 HZ          -4.1090     4.5570    -0.0050 ha         1 E18       0.100000
     37 HE1         -3.1010     3.8480    -2.1730 ha         1 E18       0.102500
@<TRIPOS>BOND
     1     1     2 1   
     2     2     3 1   
     3     2     4 1   
     4     2     5 1   
     5     5     6 1   
     6     6     7 2   
     7     7     8 1   
     8     7    14 1   
     9     8     9 1   
    10     9    10 1   
    11     9    23 1   
    12     9    24 1   
    13    10    11 1   
    14    10    25 1   
    15    10    26 1   
    16    11    12 1   
    17    11    13 1   
    18    12    27 1   
    19    12    28 1   
    20    12    29 1   
    21    13    30 1   
    22    13    31 1   
    23    13    32 1   
    24    14    15 1   
    25    14    21 1   
    26    14    22 1   
    27    15    16 ar  
    28    15    20 ar  
    29    16    17 ar  
    30    16    33 1   
    31    17    18 ar  
    32    17    35 1   
    33    18    19 ar  
    34    18    36 1   
    35    19    20 ar  
    36    19    37 1   
    37    20    34 1   
@<TRIPOS>SUBSTRUCTURE
     1 E18         1 TEMP              0 ****  ****    0 ROOT
