@<TRIPOS>MOLECULE
E18
   37    37     1     0     0
SMALL
bcc


@<TRIPOS>ATOM
      1 O20         -2.2270    -3.7720     0.1470 o          1 E18      -0.696533
      2 S19         -2.5320    -2.3520     0.0100 s6         1 E18       1.500300
      3 O21         -3.0460    -1.9490    -1.2950 o          1 E18      -0.696533
      4 O22         -3.2160    -1.7480     1.1480 o          1 E18      -0.696533
      5 O18         -0.9630    -1.7480     0.0640 os         1 E18      -0.329200
      6 N17         -0.9630    -0.3710     0.0010 n2         1 E18      -0.310200
      7 C13          0.2170     0.0920    -0.0630 c2         1 E18       0.350200
      8 S1           1.6010    -0.9930    -0.0890 ss         1 E18      -0.214300
      9 C1           3.0350     0.1250    -0.1220 c3         1 E18      -0.030300
     10 C2           4.2770    -0.7600    -0.0840 c3         1 E18       0.172800
     11 N18          5.5000     0.0110    -0.1730 n3         1 E18      -0.714600
     12 C20          5.7520     0.7900     1.0230 c3         1 E18       0.151100
     13 C19          6.6260    -0.8530    -0.4640 c3         1 E18       0.151100
     14 CB           0.4090     1.5810    -0.1260 c3         1 E18      -0.058400
     15 CG          -0.8800     2.3520    -0.0760 ca         1 E18      -0.061300
     16 CD2         -1.4230     2.7450     1.1420 ca         1 E18      -0.104000
     17 CE2         -2.6150     3.4540     1.1900 ca         1 E18      -0.128000
     18 CZ          -3.2800     3.7800     0.0150 ca         1 E18      -0.130000
     19 CE1         -2.7440     3.3920    -1.2060 ca         1 E18      -0.128000
     20 CD1         -1.5520     2.6810    -1.2490 ca         1 E18      -0.104000
     21 HB1C         1.0570     1.8870     0.7000 hc         1 E18       0.045700
     22 HB2C         0.9520     1.8230    -1.0430 hc         1 E18       0.045700
     23 H11C         3.0380     0.7240    -1.0330 h1         1 E18       0.058700
     24 H12C         2.9950     0.7880     0.7400 h1         1 E18       0.058700
     25 H21C         4.2540    -1.3890     0.8220 h1         1 E18       0.045200
     26 H22C         4.2440    -1.4410    -0.9390 h1         1 E18       0.045200
     27 H201         5.8130     0.1720     1.9330 h1         1 E18       0.026867
     28 H202         6.6960     1.3250     0.9200 h1         1 E18       0.026867
     29 H203         4.9750     1.5380     1.1790 h1         1 E18       0.026867
     30 H191         6.4640    -1.3800    -1.4060 h1         1 E18       0.026867
     31 H192         7.5350    -0.2590    -0.5650 h1         1 E18       0.026867
     32 H193         6.8060    -1.6090     0.3170 h1         1 E18       0.026867
     33 HD2         -0.9090     2.4970     2.0640 ha         1 E18       0.127500
     34 HD1         -1.1380     2.3830    -2.2050 ha         1 E18       0.127500
     35 HE2         -3.0250     3.7530     2.1460 ha         1 E18       0.120500
     36 HZ          -4.2080     4.3370     0.0500 ha         1 E18       0.118000
     37 HE1         -3.2530     3.6420    -2.1280 ha         1 E18       0.120500
@<TRIPOS>BOND
     1     1     2 1   
     2     2     3 1   
     3     2     4 1   
     4     2     5 1   
     5     5     6 1   
     6     6     7 2   
     7     7     8 1   
     8     7    14 1   
     9     8     9 1   
    10     9    10 1   
    11     9    23 1   
    12     9    24 1   
    13    10    11 1   
    14    10    25 1   
    15    10    26 1   
    16    11    12 1   
    17    11    13 1   
    18    12    27 1   
    19    12    28 1   
    20    12    29 1   
    21    13    30 1   
    22    13    31 1   
    23    13    32 1   
    24    14    15 1   
    25    14    21 1   
    26    14    22 1   
    27    15    16 ar  
    28    15    20 ar  
    29    16    17 ar  
    30    16    33 1   
    31    17    18 ar  
    32    17    35 1   
    33    18    19 ar  
    34    18    36 1   
    35    19    20 ar  
    36    19    37 1   
    37    20    34 1   
@<TRIPOS>SUBSTRUCTURE
     1 E18         1 TEMP              0 ****  ****    0 ROOT
