@<TRIPOS>MOLECULE
E19
  150   152     1     0     0
SMALL
No Charge or Current Charge


@<TRIPOS>ATOM
      1 N           13.1550     3.8640    -3.6100 n8         1 E19      -0.879800
      2 CA          12.0810     4.4940    -2.7730 c3         1 E19       0.093500
      3 C           11.3080     3.5330    -1.7800 c          1 E19       0.670100
      4 O           11.1880     2.3310    -2.0100 o          1 E19      -0.612100
      5 CB          11.0950     5.2430    -3.6970 c3         1 E19      -0.097100
      6 N1          10.7390     4.0760    -0.6030 n          1 E19      -0.473800
      7 CA1          9.9760     3.2310     0.3600 c5         1 E19       0.033700
      8 C1           8.5640     2.8060    -0.1610 c          1 E19       0.659100
      9 O1           7.8440     3.4080    -0.9500 o          1 E19      -0.606100
     10 CB1          9.8370     4.1870     1.5830 c5         1 E19      -0.076400
     11 CG           9.7980     5.5870     0.9190 c5         1 E19      -0.092400
     12 CD          10.9210     5.4690    -0.1430 c5         1 E19       0.109000
     13 N2           8.2450     1.5660     0.3510 ns         1 E19      -0.541900
     14 CA2          7.1340     0.7060    -0.1270 c3         1 E19       0.026700
     15 C2           6.4650    -0.0430     1.0650 c          1 E19       0.665100
     16 O2           6.9760    -0.1280     2.1760 o          1 E19      -0.605100
     17 CB2          7.6670    -0.2880    -1.1990 c3         1 E19      -0.084400
     18 CG1          8.0440     0.3640    -2.5590 c3         1 E19      -0.158400
     19 CD1          8.9470    -0.5440    -3.3960 c          1 E19       0.669100
     20 OE1          8.5400    -1.5030    -4.0280 o          1 E19      -0.627100
     21 NE2         10.2560    -0.2200    -3.4160 nt         1 E19      -0.670000
     22 N3           5.2420    -0.6140     0.7830 ns         1 E19      -0.551900
     23 CA3          4.4010    -1.3690     1.7490 c3         1 E19       0.027700
     24 C3           3.7760    -2.6250     1.0670 c          1 E19       0.648100
     25 O3           3.7920    -2.8060    -0.1440 o          1 E19      -0.595100
     26 CB3          3.3180    -0.4570     2.4100 c3         1 E19      -0.063700
     27 CG11         3.9340     0.6110     3.3440 c3         1 E19      -0.090100
     28 CG2          2.3620     0.1930     1.3790 c3         1 E19      -0.090100
     29 N4           3.2030    -3.5360     1.9320 ns         1 E19      -0.577900
     30 CA4          2.6150    -4.8280     1.5310 c3         1 E19       0.075700
     31 CB4          3.0450    -5.9460     2.5190 c3         1 E19      -0.089400
     32 CG3          4.5800    -6.1240     2.7130 c3         1 E19      -0.058700
     33 CD11         4.8760    -7.1990     3.7830 c3         1 E19      -0.091600
     34 CD2          5.3190    -6.4480     1.3920 c3         1 E19      -0.091600
     35 CH           1.0650    -4.7480     1.3570 c3         1 E19       0.144100
     36 OH           0.4600    -4.2710     2.5650 oh         1 E19      -0.589800
     37 CM           0.6270    -3.8260     0.2000 c3         1 E19      -0.194400
     38 C4          -0.8600    -3.9820    -0.0930 c          1 E19       0.681100
     39 O4          -1.3180    -4.9700    -0.6460 o          1 E19      -0.597100
     40 N5          -1.6410    -2.9060     0.2610 ns         1 E19      -0.565900
     41 CA5         -3.1160    -2.8210     0.0960 c3         1 E19       0.033700
     42 C5          -3.5380    -1.3940    -0.3760 c          1 E19       0.650100
     43 O5          -2.7650    -0.4450    -0.4230 o          1 E19      -0.605100
     44 CB5         -3.8710    -3.2620     1.3920 c3         1 E19      -0.066700
     45 CG12        -3.6430    -4.7530     1.7380 c3         1 E19      -0.092600
     46 CG21        -3.5580    -2.3570     2.6090 c3         1 E19      -0.092600
     47 N6          -4.8630    -1.2620    -0.7340 ns         1 E19      -0.565900
     48 CA6         -5.5210     0.0040    -1.1420 c3         1 E19       0.025700
     49 C6          -6.9580     0.0760    -0.5440 c          1 E19       0.648100
     50 O6          -7.5590    -0.9090    -0.1330 o          1 E19      -0.641100
     51 CB6         -5.5470     0.1530    -2.6860 c3         1 E19      -0.079400
     52 CG4         -4.1510     0.2000    -3.3400 c3         1 E19       0.011700
     53 SD          -4.3030     0.4670    -5.1610 ss         1 E19      -0.331200
     54 CE          -2.5160     0.4620    -5.6300 c3         1 E19      -0.006000
     55 N7          -7.5150     1.3370    -0.4990 ns         1 E19      -0.560900
     56 CA7         -8.8420     1.6640     0.0880 c3         1 E19       0.017700
     57 C7          -9.5780     2.7540    -0.7600 c          1 E19       0.668100
     58 O7          -8.9700     3.4360    -1.5800 o          1 E19      -0.593100
     59 CB7         -8.6950     2.1020     1.5710 c3         1 E19      -0.047100
     60 CG5         -8.0360     1.0660     2.4450 cc         1 E19      -0.022600
     61 ND1         -6.7170     1.1500     2.9040 na         1 E19      -0.112100
     62 CD21        -8.5770    -0.1050     2.9410 cd         1 E19      -0.130300
     63 CE1         -6.4360     0.0330     3.6740 cc         1 E19      -0.045600
     64 NE21        -7.5840    -0.7130     3.6780 na         1 E19      -0.107100
     65 N8         -10.9530     2.9850    -0.5280 n          1 E19      -0.424800
     66 CA8        -11.6940     4.1310    -1.1460 c5         1 E19      -0.039300
     67 C8         -11.0920     5.5700    -0.9290 c          1 E19       0.937600
     68 O8         -10.6160     5.8780     0.1600 o          1 E19      -0.820800
     69 CB8        -13.0690     4.0190    -0.4250 c5         1 E19      -0.076400
     70 CG6        -13.2510     2.4830    -0.3560 c5         1 E19      -0.094400
     71 CD3        -11.8540     2.0090     0.1250 c5         1 E19       0.100000
     72 OXT        -11.0910     6.3610    -1.8660 o          1 E19      -0.820800
     73 H           13.6690     4.5950    -4.1140 hn         1 E19       0.349300
     74 H2          13.8580     3.4340    -2.9990 hn         1 E19       0.349300
     75 HA          12.5890     5.2420    -2.1520 h1         1 E19       0.028700
     76 HB1         10.3310     5.7710    -3.1150 hc         1 E19       0.052033
     77 HB2         11.6210     5.9820    -4.3130 hc         1 E19       0.052033
     78 HB3         10.5810     4.5390    -4.3630 hc         1 E19       0.052033
     79 HA1         10.5410     2.3280     0.6270 h1         1 E19       0.077700
     80 HB21         8.9490     3.9790     2.1930 hc         1 E19       0.059700
     81 HB31        10.7070     4.0970     2.2440 hc         1 E19       0.059700
     82 HG2          8.8280     5.7770     0.4460 hc         1 E19       0.067700
     83 HG3          9.9800     6.4010     1.6300 hc         1 E19       0.067700
     84 HD2         11.9150     5.6020     0.3050 h1         1 E19       0.048200
     85 HD3         10.7950     6.2100    -0.9420 h1         1 E19       0.048200
     86 H1           8.8840     1.1780     1.0360 hn         1 E19       0.334500
     87 HA2          6.3510     1.3340    -0.5740 h1         1 E19       0.091700
     88 HB22         8.5430    -0.8060    -0.7860 hc         1 E19       0.067700
     89 HB32         6.9170    -1.0660    -1.3900 hc         1 E19       0.067700
     90 HG21         7.1250     0.5730    -3.1170 hc         1 E19       0.065700
     91 HG31         8.5830     1.2960    -2.3740 hc         1 E19       0.065700
     92 HE21        10.5840     0.5910    -2.9030 hn         1 E19       0.325000
     93 HE22        10.8940    -0.7810    -3.9580 hn         1 E19       0.325000
     94 H3           4.9090    -0.5280    -0.1710 hn         1 E19       0.333500
     95 HA3          5.0480    -1.7640     2.5430 h1         1 E19       0.094700
     96 HB           2.7010    -1.0990     3.0520 hc         1 E19       0.039700
     97 HG11         4.5140     1.3470     2.7750 hc         1 E19       0.039700
     98 HG12         3.1470     1.1470     3.8870 hc         1 E19       0.039700
     99 HG13         4.5960     0.1450     4.0830 hc         1 E19       0.039700
    100 HG22         2.8980     0.8940     0.7290 hc         1 E19       0.039700
    101 HG23         1.8850    -0.5650     0.7470 hc         1 E19       0.039700
    102 HG24         1.5660     0.7480     1.8900 hc         1 E19       0.039700
    103 HN1          3.2880    -3.3320     2.9210 hn         1 E19       0.314500
    104 HA4          3.0220    -5.1010     0.5480 h1         1 E19       0.089700
    105 HB11         2.5920    -5.7430     3.4980 hc         1 E19       0.054700
    106 HB23         2.6200    -6.8980     2.1770 hc         1 E19       0.054700
    107 HG           4.9890    -5.1800     3.0940 hc         1 E19       0.040700
    108 HD11         4.5020    -8.1800     3.4670 hc         1 E19       0.037367
    109 HD12         5.9550    -7.2840     3.9600 hc         1 E19       0.037367
    110 HD13         4.3990    -6.9410     4.7360 hc         1 E19       0.037367
    111 HD21         5.2350    -5.6210     0.6780 hc         1 E19       0.037367
    112 HD22         6.3870    -6.6140     1.5780 hc         1 E19       0.037367
    113 HD23         4.9080    -7.3520     0.9250 hc         1 E19       0.037367
    114 HC           0.7040    -5.7630     1.1320 h1         1 E19       0.099700
    115 HH           1.0140    -3.5290     2.8800 ho         1 E19       0.396000
    116 HM1          0.8580    -2.7870     0.4550 hc         1 E19       0.077200
    117 HM2          1.1800    -4.1160    -0.7010 hc         1 E19       0.077200
    118 H4          -1.1610    -2.1160     0.6750 hn         1 E19       0.331500
    119 HA5         -3.4160    -3.4940    -0.7180 h1         1 E19       0.097700
    120 HB4         -4.9450    -3.1620     1.1930 hc         1 E19       0.030700
    121 HG14        -2.6030    -4.9370     2.0330 hc         1 E19       0.040367
    122 HG15        -4.2890    -5.0580     2.5700 hc         1 E19       0.040367
    123 HG16        -3.8770    -5.3920     0.8780 hc         1 E19       0.040367
    124 HG25        -3.7890    -1.3080     2.3910 hc         1 E19       0.040367
    125 HG26        -4.1600    -2.6570     3.4760 hc         1 E19       0.040367
    126 HG27        -2.5010    -2.4260     2.8910 hc         1 E19       0.040367
    127 H5          -5.4470    -2.0850    -0.6280 hn         1 E19       0.333500
    128 HA6         -4.9660     0.8490    -0.7130 h1         1 E19       0.096700
    129 HB24        -6.1180    -0.6780    -3.1200 hc         1 E19       0.074200
    130 HB33        -6.0830     1.0730    -2.9490 hc         1 E19       0.074200
    131 HG28        -3.5620     1.0180    -2.9050 h1         1 E19       0.064200
    132 HG32        -3.6200    -0.7440    -3.1650 h1         1 E19       0.064200
    133 HE1         -1.9910     1.2700    -5.1050 h1         1 E19       0.062700
    134 HE2         -2.0630    -0.4990    -5.3590 h1         1 E19       0.062700
    135 HE3         -2.4180     0.6140    -6.7120 h1         1 E19       0.062700
    136 H6          -6.9730     2.0920    -0.9080 hn         1 E19       0.358500
    137 HA7         -9.4650     0.7620     0.0510 h1         1 E19       0.080700
    138 HB25        -8.1250     3.0390     1.6080 hc         1 E19       0.116200
    139 HB34        -9.6790     2.3420     1.9880 hc         1 E19       0.116200
    140 HD1         -6.0710     1.9080     2.7100 hn         1 E19       0.359700
    141 HD24        -9.5670    -0.5320     2.8120 h4         1 E19       0.225000
    142 HE11        -5.5020    -0.1960     4.1810 h5         1 E19       0.242000
    143 HE23        -7.6930    -1.5990     4.1640 hn         1 E19       0.350700
    144 HA8        -11.8020     3.9700    -2.2260 h1         1 E19       0.068700
    145 HB26       -13.0380     4.4560     0.5810 hc         1 E19       0.058700
    146 HB35       -13.8740     4.5180    -0.9760 hc         1 E19       0.058700
    147 HG29       -14.0530     2.1790     0.3250 hc         1 E19       0.042200
    148 HG33       -13.4860     2.0710    -1.3440 hc         1 E19       0.042200
    149 HD25       -11.6530     0.9750    -0.1840 h1         1 E19       0.025700
    150 HD31       -11.7740     2.0740     1.2180 h1         1 E19       0.025700
@<TRIPOS>BOND
     1     1     2 1   
     2     1    73 1   
     3     1    74 1   
     4     2     3 1   
     5     2     5 1   
     6     2    75 1   
     7     3     4 2   
     8     3     6 1   
     9     5    76 1   
    10     5    77 1   
    11     5    78 1   
    12     6     7 1   
    13     6    12 1   
    14     7     8 1   
    15     7    10 1   
    16     7    79 1   
    17     8     9 2   
    18     8    13 1   
    19    10    11 1   
    20    10    80 1   
    21    10    81 1   
    22    11    12 1   
    23    11    82 1   
    24    11    83 1   
    25    12    84 1   
    26    12    85 1   
    27    13    14 1   
    28    13    86 1   
    29    14    15 1   
    30    14    17 1   
    31    14    87 1   
    32    15    16 2   
    33    15    22 1   
    34    17    18 1   
    35    17    88 1   
    36    17    89 1   
    37    18    19 1   
    38    18    90 1   
    39    18    91 1   
    40    19    20 2   
    41    19    21 1   
    42    21    92 1   
    43    21    93 1   
    44    22    23 1   
    45    22    94 1   
    46    23    24 1   
    47    23    26 1   
    48    23    95 1   
    49    24    25 2   
    50    24    29 1   
    51    26    27 1   
    52    26    28 1   
    53    26    96 1   
    54    27    97 1   
    55    27    98 1   
    56    27    99 1   
    57    28   100 1   
    58    28   101 1   
    59    28   102 1   
    60    29    30 1   
    61    29   103 1   
    62    30    31 1   
    63    30    35 1   
    64    30   104 1   
    65    31    32 1   
    66    31   105 1   
    67    31   106 1   
    68    32    33 1   
    69    32    34 1   
    70    32   107 1   
    71    33   108 1   
    72    33   109 1   
    73    33   110 1   
    74    34   111 1   
    75    34   112 1   
    76    34   113 1   
    77    35    36 1   
    78    35    37 1   
    79    35   114 1   
    80    36   115 1   
    81    37    38 1   
    82    37   116 1   
    83    37   117 1   
    84    38    39 2   
    85    38    40 1   
    86    40    41 1   
    87    40   118 1   
    88    41    42 1   
    89    41    44 1   
    90    41   119 1   
    91    42    43 2   
    92    42    47 1   
    93    44    45 1   
    94    44    46 1   
    95    44   120 1   
    96    45   121 1   
    97    45   122 1   
    98    45   123 1   
    99    46   124 1   
   100    46   125 1   
   101    46   126 1   
   102    47    48 1   
   103    47   127 1   
   104    48    49 1   
   105    48    51 1   
   106    48   128 1   
   107    49    50 2   
   108    49    55 1   
   109    51    52 1   
   110    51   129 1   
   111    51   130 1   
   112    52    53 1   
   113    52   131 1   
   114    52   132 1   
   115    53    54 1   
   116    54   133 1   
   117    54   134 1   
   118    54   135 1   
   119    55    56 1   
   120    55   136 1   
   121    56    57 1   
   122    56    59 1   
   123    56   137 1   
   124    57    58 2   
   125    57    65 1   
   126    59    60 1   
   127    59   138 1   
   128    59   139 1   
   129    60    61 1   
   130    60    62 2   
   131    61    63 2   
   132    61   140 1   
   133    62    64 1   
   134    62   141 1   
   135    63    64 1   
   136    63   142 1   
   137    64   143 1   
   138    65    66 1   
   139    65    71 1   
   140    66    67 1   
   141    66    69 1   
   142    66   144 1   
   143    67    68 1   
   144    67    72 1   
   145    69    70 1   
   146    69   145 1   
   147    69   146 1   
   148    70    71 1   
   149    70   147 1   
   150    70   148 1   
   151    71   149 1   
   152    71   150 1   
@<TRIPOS>SUBSTRUCTURE
     1 E19         1 TEMP              0 ****  ****    0 ROOT
