@<TRIPOS>MOLECULE
E19
  150   152     1     0     0
SMALL
bcc


@<TRIPOS>ATOM
      1 N           11.3310     3.3210    -3.3250 n8         1 E19      -0.879800
      2 CA          10.4590     4.2190    -2.5950 c3         1 E19       0.093500
      3 C           10.0180     3.5460    -1.3010 c          1 E19       0.670100
      4 O           10.0580     2.3280    -1.1680 o          1 E19      -0.612100
      5 CB           9.2190     4.4980    -3.4470 c3         1 E19      -0.097100
      6 N1           9.5160     4.3290    -0.3320 n          1 E19      -0.473800
      7 CA1          8.8970     3.7200     0.8380 c5         1 E19       0.033700
      8 C1           7.6170     3.0070     0.4000 c          1 E19       0.659100
      9 O1           6.7150     3.6160    -0.1540 o          1 E19      -0.606100
     10 CB1          8.6130     4.9150     1.7540 c5         1 E19      -0.076400
     11 CG           8.4820     6.1000     0.8030 c5         1 E19      -0.092400
     12 CD           9.4940     5.7900    -0.2910 c5         1 E19       0.109000
     13 N2           7.5770     1.6940     0.6760 ns         1 E19      -0.541900
     14 CA2          6.5490     0.8020     0.2060 c3         1 E19       0.026700
     15 C2           6.1420    -0.1460     1.3290 c          1 E19       0.665100
     16 O2           6.9420    -0.5200     2.1710 o          1 E19      -0.605100
     17 CB2          7.0270    -0.0330    -0.9950 c3         1 E19      -0.084400
     18 CG1          7.2590     0.8300    -2.2340 c3         1 E19      -0.158400
     19 CD1          7.9710     0.0570    -3.3230 c          1 E19       0.669100
     20 OE1          7.4590    -0.9220    -3.8520 o          1 E19      -0.627100
     21 NE2          9.1840     0.5210    -3.6590 nt         1 E19      -0.670000
     22 N3           4.8630    -0.5500     1.2620 ns         1 E19      -0.551900
     23 CA3          4.3060    -1.6100     2.0580 c3         1 E19       0.027700
     24 C3           3.7460    -2.6880     1.1250 c          1 E19       0.648100
     25 O3           3.6670    -2.5190    -0.0800 o          1 E19      -0.595100
     26 CB3          3.2480    -1.0990     3.0590 c3         1 E19      -0.063700
     27 CG11         3.8790    -0.1260     4.0480 c3         1 E19      -0.090100
     28 CG2          2.0460    -0.4670     2.3670 c3         1 E19      -0.090100
     29 N4           3.3370    -3.8060     1.7530 ns         1 E19      -0.577900
     30 CA4          2.8500    -4.9980     1.0780 c3         1 E19       0.075700
     31 CB4          3.4840    -6.2430     1.6920 c3         1 E19      -0.089400
     32 CG3          5.0130    -6.2850     1.6520 c3         1 E19      -0.058700
     33 CD11         5.5040    -7.5780     2.2950 c3         1 E19      -0.091600
     34 CD2          5.5590    -6.1500     0.2340 c3         1 E19      -0.091600
     35 CH           1.3160    -5.0660     1.1180 c3         1 E19       0.144100
     36 OH           0.8160    -5.0220     2.4350 oh         1 E19      -0.589800
     37 CM           0.6790    -3.9850     0.2480 c3         1 E19      -0.194400
     38 C4          -0.8290    -4.0780     0.2900 c          1 E19       0.681100
     39 O4          -1.4190    -5.1110     0.0150 o          1 E19      -0.597100
     40 N5          -1.4500    -2.9420     0.6580 ns         1 E19      -0.565900
     41 CA5         -2.8780    -2.7770     0.7010 c3         1 E19       0.033700
     42 C5          -3.2370    -1.4820    -0.0220 c          1 E19       0.650100
     43 O5          -2.4250    -0.5810    -0.1660 o          1 E19      -0.605100
     44 CB5         -3.4320    -2.7730     2.1440 c3         1 E19      -0.066700
     45 CG12        -3.1460    -4.1040     2.8290 c3         1 E19      -0.092600
     46 CG21        -2.8930    -1.6110     2.9720 c3         1 E19      -0.092600
     47 N6          -4.5110    -1.4150    -0.4400 ns         1 E19      -0.565900
     48 CA6         -5.0760    -0.2760    -1.1170 c3         1 E19       0.025700
     49 C6          -6.4160     0.0700    -0.4750 c          1 E19       0.648100
     50 O6          -7.1580    -0.7990    -0.0480 o          1 E19      -0.641100
     51 CB6         -5.3010    -0.5450    -2.6110 c3         1 E19      -0.079400
     52 CG4         -4.0030    -0.8600    -3.3370 c3         1 E19       0.011700
     53 SD          -4.3440    -1.0730    -5.1070 ss         1 E19      -0.331200
     54 CE          -2.7080    -1.5870    -5.6730 c3         1 E19      -0.006000
     55 N7          -6.7030     1.3800    -0.4650 ns         1 E19      -0.560900
     56 CA7         -7.9790     1.9220    -0.0810 c3         1 E19       0.017700
     57 C7          -8.2650     3.1470    -0.9470 c          1 E19       0.668100
     58 O7          -7.3410     3.7250    -1.5090 o          1 E19      -0.593100
     59 CB7         -7.9900     2.3590     1.4010 c3         1 E19      -0.047100
     60 CG5         -7.6680     1.2230     2.2970 cc         1 E19      -0.022600
     61 ND1         -6.3870     0.8970     2.6710 na         1 E19      -0.112100
     62 CD21        -8.4620     0.2580     2.8290 cd         1 E19      -0.130300
     63 CE1         -6.3900    -0.2130     3.3910 cc         1 E19      -0.045600
     64 NE21        -7.6430    -0.6110     3.4940 na         1 E19      -0.107100
     65 N8          -9.5280     3.5650    -1.0130 n          1 E19      -0.424800
     66 CA8         -9.8230     4.8800    -1.5690 c5         1 E19      -0.039300
     67 C8          -9.0940     6.0130    -0.8150 c          1 E19       0.937600
     68 O8          -8.7850     5.7950     0.3690 o          1 E19      -0.820800
     69 CB8        -11.3460     5.0070    -1.3960 c5         1 E19      -0.076400
     70 CG6        -11.8350     3.5700    -1.2430 c5         1 E19      -0.094400
     71 CD3        -10.7080     2.9160    -0.4590 c5         1 E19       0.100000
     72 OXT         -8.9450     7.0690    -1.4610 o          1 E19      -0.820800
     73 H           11.5860     3.7610    -4.2010 hn         1 E19       0.349300
     74 H2          12.1980     3.1850    -2.8210 hn         1 E19       0.349300
     75 HA          10.9380     5.1760    -2.3520 h1         1 E19       0.028700
     76 HB1          8.4750     5.0990    -2.9260 hc         1 E19       0.052033
     77 HB2          9.5020     5.0350    -4.3540 hc         1 E19       0.052033
     78 HB3          8.7510     3.5600    -3.7480 hc         1 E19       0.052033
     79 HA1          9.5830     3.0180     1.3170 h1         1 E19       0.077700
     80 HB21         7.7340     4.7660     2.3810 hc         1 E19       0.059700
     81 HB31         9.4670     5.0540     2.4200 hc         1 E19       0.059700
     82 HG2          7.4780     6.1440     0.3840 hc         1 E19       0.067700
     83 HG3          8.6880     7.0540     1.2860 hc         1 E19       0.067700
     84 HD2         10.4850     6.1750    -0.0350 h1         1 E19       0.048200
     85 HD3          9.2030     6.2210    -1.2480 h1         1 E19       0.048200
     86 H1           8.4120     1.2640     1.0420 hn         1 E19       0.334500
     87 HA2          5.6910     1.4070    -0.0940 h1         1 E19       0.091700
     88 HB22         7.9510    -0.5440    -0.7090 hc         1 E19       0.067700
     89 HB32         6.2890    -0.8080    -1.2120 hc         1 E19       0.067700
     90 HG21         6.2990     1.1710    -2.6270 hc         1 E19       0.065700
     91 HG31         7.8300     1.7150    -1.9670 hc         1 E19       0.065700
     92 HE21         9.6440     1.2640    -3.1490 hn         1 E19       0.325000
     93 HE22         9.7320     0.0320    -4.3490 hn         1 E19       0.325000
     94 H3           4.3090    -0.2200     0.4880 hn         1 E19       0.333500
     95 HA3          5.1210    -2.0540     2.6350 h1         1 E19       0.094700
     96 HB           2.9000    -1.9680     3.6260 hc         1 E19       0.039700
     97 HG11         4.1990     0.7910     3.5510 hc         1 E19       0.039700
     98 HG12         3.1600     0.1510     4.8190 hc         1 E19       0.039700
     99 HG13         4.7470    -0.5620     4.5440 hc         1 E19       0.039700
    100 HG22         2.3370     0.3980     1.7680 hc         1 E19       0.039700
    101 HG23         1.5230    -1.1640     1.7100 hc         1 E19       0.039700
    102 HG24         1.3240    -0.1210     3.1060 hc         1 E19       0.039700
    103 HN1          3.5490    -3.8940     2.7360 hn         1 E19       0.314500
    104 HA4          3.1450    -4.9280     0.0290 h1         1 E19       0.089700
    105 HB11         3.1460    -6.3490     2.7280 hc         1 E19       0.054700
    106 HB23         3.0930    -7.1130     1.1540 hc         1 E19       0.054700
    107 HG           5.4010    -5.4500     2.2460 hc         1 E19       0.040700
    108 HD11         5.1350    -8.4500     1.7480 hc         1 E19       0.037367
    109 HD12         6.5940    -7.6270     2.3000 hc         1 E19       0.037367
    110 HD13         5.1640    -7.6680     3.3280 hc         1 E19       0.037367
    111 HD21         5.3290    -5.1810    -0.2110 hc         1 E19       0.037367
    112 HD22         6.6450    -6.2580     0.2230 hc         1 E19       0.037367
    113 HD23         5.1450    -6.9230    -0.4200 hc         1 E19       0.037367
    114 HC           1.0210    -6.0400     0.7190 h1         1 E19       0.099700
    115 HH           1.0320    -4.1660     2.8190 ho         1 E19       0.396000
    116 HM1          1.0210    -2.9950     0.5560 hc         1 E19       0.077200
    117 HM2          1.0040    -4.1160    -0.7870 hc         1 E19       0.077200
    118 H4          -0.8980    -2.1040     0.7540 hn         1 E19       0.331500
    119 HA5         -3.3300    -3.6200     0.1720 h1         1 E19       0.097700
    120 HB4         -4.5190    -2.6670     2.0590 hc         1 E19       0.030700
    121 HG14        -2.0740    -4.2680     2.9510 hc         1 E19       0.040367
    122 HG15        -3.5990    -4.1200     3.8210 hc         1 E19       0.040367
    123 HG16        -3.5530    -4.9420     2.2620 hc         1 E19       0.040367
    124 HG25        -3.1680    -0.6350     2.5690 hc         1 E19       0.040367
    125 HG26        -3.2760    -1.6670     3.9930 hc         1 E19       0.040367
    126 HG27        -1.8050    -1.6450     3.0450 hc         1 E19       0.040367
    127 H5          -5.1060    -2.2230    -0.3320 hn         1 E19       0.333500
    128 HA6         -4.3800     0.5570    -1.0060 h1         1 E19       0.096700
    129 HB24        -6.0060    -1.3710    -2.7290 hc         1 E19       0.074200
    130 HB33        -5.7670     0.3390    -3.0540 hc         1 E19       0.074200
    131 HG28        -3.2790    -0.0550    -3.1980 h1         1 E19       0.064200
    132 HG32        -3.5620    -1.7840    -2.9580 h1         1 E19       0.064200
    133 HE1         -1.9690    -0.8040    -5.5100 h1         1 E19       0.062700
    134 HE2         -2.3880    -2.4970    -5.1680 h1         1 E19       0.062700
    135 HE3         -2.7750    -1.7860    -6.7400 h1         1 E19       0.062700
    136 H6          -6.0440     2.0390    -0.8560 hn         1 E19       0.358500
    137 HA7         -8.7390     1.1530    -0.2280 h1         1 E19       0.080700
    138 HB25        -7.2740     3.1710     1.5450 hc         1 E19       0.116200
    139 HB34        -8.9700     2.7540     1.6660 hc         1 E19       0.116200
    140 HD1         -5.5610     1.4430     2.4670 hn         1 E19       0.359700
    141 HD24        -9.5270     0.1190     2.7740 h4         1 E19       0.225000
    142 HE11        -5.5340    -0.6840     3.8430 h5         1 E19       0.242000
    143 HE23        -7.9420    -1.4350     3.9960 hn         1 E19       0.350700
    144 HA8         -9.5570     4.9020    -2.6290 h1         1 E19       0.068700
    145 HB26       -11.5810     5.5680    -0.4880 hc         1 E19       0.058700
    146 HB35       -11.8080     5.5290    -2.2320 hc         1 E19       0.058700
    147 HG29       -12.7910     3.4960    -0.7270 hc         1 E19       0.042200
    148 HG33       -11.9390     3.0900    -2.2180 hc         1 E19       0.042200
    149 HD25       -10.6780     1.8350    -0.5920 h1         1 E19       0.025700
    150 HD31       -10.8130     3.1270     0.6100 h1         1 E19       0.025700
@<TRIPOS>BOND
     1     1     2 1   
     2     1    73 1   
     3     1    74 1   
     4     2     3 1   
     5     2     5 1   
     6     2    75 1   
     7     3     4 2   
     8     3     6 1   
     9     5    76 1   
    10     5    77 1   
    11     5    78 1   
    12     6     7 1   
    13     6    12 1   
    14     7     8 1   
    15     7    10 1   
    16     7    79 1   
    17     8     9 2   
    18     8    13 1   
    19    10    11 1   
    20    10    80 1   
    21    10    81 1   
    22    11    12 1   
    23    11    82 1   
    24    11    83 1   
    25    12    84 1   
    26    12    85 1   
    27    13    14 1   
    28    13    86 1   
    29    14    15 1   
    30    14    17 1   
    31    14    87 1   
    32    15    16 2   
    33    15    22 1   
    34    17    18 1   
    35    17    88 1   
    36    17    89 1   
    37    18    19 1   
    38    18    90 1   
    39    18    91 1   
    40    19    20 2   
    41    19    21 1   
    42    21    92 1   
    43    21    93 1   
    44    22    23 1   
    45    22    94 1   
    46    23    24 1   
    47    23    26 1   
    48    23    95 1   
    49    24    25 2   
    50    24    29 1   
    51    26    27 1   
    52    26    28 1   
    53    26    96 1   
    54    27    97 1   
    55    27    98 1   
    56    27    99 1   
    57    28   100 1   
    58    28   101 1   
    59    28   102 1   
    60    29    30 1   
    61    29   103 1   
    62    30    31 1   
    63    30    35 1   
    64    30   104 1   
    65    31    32 1   
    66    31   105 1   
    67    31   106 1   
    68    32    33 1   
    69    32    34 1   
    70    32   107 1   
    71    33   108 1   
    72    33   109 1   
    73    33   110 1   
    74    34   111 1   
    75    34   112 1   
    76    34   113 1   
    77    35    36 1   
    78    35    37 1   
    79    35   114 1   
    80    36   115 1   
    81    37    38 1   
    82    37   116 1   
    83    37   117 1   
    84    38    39 2   
    85    38    40 1   
    86    40    41 1   
    87    40   118 1   
    88    41    42 1   
    89    41    44 1   
    90    41   119 1   
    91    42    43 2   
    92    42    47 1   
    93    44    45 1   
    94    44    46 1   
    95    44   120 1   
    96    45   121 1   
    97    45   122 1   
    98    45   123 1   
    99    46   124 1   
   100    46   125 1   
   101    46   126 1   
   102    47    48 1   
   103    47   127 1   
   104    48    49 1   
   105    48    51 1   
   106    48   128 1   
   107    49    50 2   
   108    49    55 1   
   109    51    52 1   
   110    51   129 1   
   111    51   130 1   
   112    52    53 1   
   113    52   131 1   
   114    52   132 1   
   115    53    54 1   
   116    54   133 1   
   117    54   134 1   
   118    54   135 1   
   119    55    56 1   
   120    55   136 1   
   121    56    57 1   
   122    56    59 1   
   123    56   137 1   
   124    57    58 2   
   125    57    65 1   
   126    59    60 1   
   127    59   138 1   
   128    59   139 1   
   129    60    61 1   
   130    60    62 2   
   131    61    63 2   
   132    61   140 1   
   133    62    64 1   
   134    62   141 1   
   135    63    64 1   
   136    63   142 1   
   137    64   143 1   
   138    65    66 1   
   139    65    71 1   
   140    66    67 1   
   141    66    69 1   
   142    66   144 1   
   143    67    68 1   
   144    67    72 1   
   145    69    70 1   
   146    69   145 1   
   147    69   146 1   
   148    70    71 1   
   149    70   147 1   
   150    70   148 1   
   151    71   149 1   
   152    71   150 1   
@<TRIPOS>SUBSTRUCTURE
     1 E19         1 TEMP              0 ****  ****    0 ROOT
