@<TRIPOS>MOLECULE
E1D
   39    41     1     0     0
SMALL
bcc


@<TRIPOS>ATOM
      1 C4          -2.4300    -0.8610    -0.0930 ca         1 E1D      -0.263000
      2 C14          4.1840    -1.0970    -0.0980 ca         1 E1D       0.133400
      3 C5          -2.3020     0.5350     0.1010 ca         1 E1D       0.714200
      4 C6          -4.8170    -0.7120    -0.1980 c          1 E1D       0.706500
      5 C11          3.4530     1.5150     0.2700 ca         1 E1D      -0.206000
      6 C7          -4.6030     0.7730    -0.4930 c6         1 E1D       0.154500
      7 C10         -5.8610     1.5600    -0.1760 c3         1 E1D      -0.091100
      8 C12          4.7770     1.1470     0.2210 ca         1 E1D       0.133400
      9 C13          5.2000    -0.1640     0.0420 ca         1 E1D       0.023100
     10 N2          -0.0510    -0.9840    -0.1610 nb         1 E1D      -0.764000
     11 C3          -1.2570    -1.5590    -0.2290 ca         1 E1D       0.458200
     12 N3          -1.1130     1.1000     0.1860 nb         1 E1D      -0.825000
     13 C1           2.4570     0.5450     0.1190 ca         1 E1D       0.210600
     14 C2          -0.0390     0.3150     0.0630 ca         1 E1D       0.928900
     15 N4          -3.6930    -1.4540    -0.0450 n          1 E1D      -0.352000
     16 N5          -3.4280     1.2770     0.2220 nh         1 E1D      -0.758300
     17 O1          -5.9330    -1.1940    -0.1560 o          1 E1D      -0.611500
     18 C15          2.8400    -0.7830    -0.0720 ca         1 E1D      -0.206000
     19 O2           6.4890    -0.5550    -0.0320 oh         1 E1D      -0.472100
     20 F2           5.7230     2.0900     0.3640 f          1 E1D      -0.134400
     21 H1           3.2020     2.5580     0.4220 ha         1 E1D       0.173000
     22 H2          -4.4230     0.8480    -1.5780 h1         1 E1D       0.060700
     23 H9          -6.0740     1.5680     0.8930 hc         1 E1D       0.057033
     24 H10         -5.7790     2.5870    -0.5250 hc         1 E1D       0.057033
     25 H11         -6.7080     1.1140    -0.6910 hc         1 E1D       0.057033
     26 H13         -1.2590    -2.6310    -0.3850 h4         1 E1D       0.030100
     27 H14          2.1080    -1.5650    -0.1910 ha         1 E1D       0.173000
     28 H15          7.0660     0.0850     0.4000 ho         1 E1D       0.434000
     29 C8          -3.7780    -2.8890     0.1500 c3         1 E1D       0.081300
     30 C9          -3.2980     2.7080     0.4150 c3         1 E1D       0.204100
     31 N1           1.1460     0.9880     0.1760 nu         1 E1D      -0.734300
     32 F1           4.5400    -2.3770    -0.2750 f          1 E1D      -0.134400
     33 H3          -3.1560    -3.1880     0.9930 h1         1 E1D       0.052700
     34 H4          -4.8050    -3.1660     0.3600 h1         1 E1D       0.052700
     35 H5          -3.4490    -3.4280    -0.7390 h1         1 E1D       0.052700
     36 H6          -3.1570     3.2430    -0.5290 h1         1 E1D       0.049367
     37 H7          -4.1830     3.0990     0.9080 h1         1 E1D       0.049367
     38 H8          -2.4440     2.9100     1.0530 h1         1 E1D       0.049367
     39 H12          1.0280     1.9790     0.3210 hn         1 E1D       0.456800
@<TRIPOS>BOND
     1     1     3 ar  
     2     1    11 ar  
     3     1    15 1   
     4     2     9 ar  
     5     2    18 ar  
     6     2    32 1   
     7     3    12 ar  
     8     3    16 1   
     9     4     6 1   
    10     4    15 1   
    11     4    17 2   
    12     5     8 ar  
    13     5    13 ar  
    14     5    21 1   
    15     6     7 1   
    16     6    16 1   
    17     6    22 1   
    18     7    23 1   
    19     7    24 1   
    20     7    25 1   
    21     8     9 ar  
    22     8    20 1   
    23     9    19 1   
    24    10    11 ar  
    25    10    14 ar  
    26    11    26 1   
    27    12    14 ar  
    28    13    18 ar  
    29    13    31 1   
    30    14    31 1   
    31    15    29 1   
    32    16    30 1   
    33    18    27 1   
    34    19    28 1   
    35    29    33 1   
    36    29    34 1   
    37    29    35 1   
    38    30    36 1   
    39    30    37 1   
    40    30    38 1   
    41    31    39 1   
@<TRIPOS>SUBSTRUCTURE
     1 E1D         1 TEMP              0 ****  ****    0 ROOT
