@<TRIPOS>MOLECULE
E1D
   39    41     1     0     0
SMALL
No Charge or Current Charge


@<TRIPOS>ATOM
      1 C4          -2.4290    -0.8890     0.1630 ca         1 E1D      -0.225000
      2 C14          4.2970    -0.9430    -0.6790 ca         1 E1D       0.168500
      3 C5          -2.2870     0.5190     0.1180 ca         1 E1D       0.385900
      4 C6          -4.8990    -0.7650    -0.2370 c          1 E1D       0.564000
      5 C11          3.5190     1.3380     0.7490 ca         1 E1D      -0.188000
      6 C7          -4.6720     0.7520    -0.5780 c6         1 E1D       0.154500
      7 C10         -5.9640     1.5770    -0.2710 c3         1 E1D      -0.091100
      8 C12          4.8740     0.9810     0.6800 ca         1 E1D       0.168500
      9 C13          5.2810    -0.1660    -0.0320 ca         1 E1D       0.023100
     10 N2          -0.0250    -1.0500     0.1280 nb         1 E1D      -0.238000
     11 C3          -1.2330    -1.6390     0.1100 ca         1 E1D       0.129900
     12 N3          -1.0740     1.1030     0.1380 nb         1 E1D      -0.299000
     13 C1           2.5450     0.5510     0.1180 ca         1 E1D       0.349000
     14 C2          -0.0100     0.2920     0.1460 ca         1 E1D       0.402900
     15 N4          -3.7300    -1.5190     0.0440 n          1 E1D      -0.192400
     16 N5          -3.4260     1.3600     0.0210 nh         1 E1D      -0.758300
     17 O1          -6.0200    -1.2720    -0.2210 o          1 E1D      -0.536000
     18 C15          2.9420    -0.5850    -0.6070 ca         1 E1D      -0.188000
     19 O2           6.6120    -0.5140    -0.1010 oh         1 E1D      -0.511100
     20 F2           5.7930     1.7520     1.3050 f          1 E1D      -0.169500
     21 H1           3.2300     2.2240     1.3050 ha         1 E1D       0.155000
     22 H2          -4.5480     0.7600    -1.6710 h1         1 E1D       0.060700
     23 H9          -6.1510     1.6330     0.8080 hc         1 E1D       0.057033
     24 H10         -5.8990     2.5990    -0.6620 hc         1 E1D       0.057033
     25 H11         -6.8470     1.1280    -0.7400 hc         1 E1D       0.057033
     26 H13         -1.2310    -2.7260     0.0600 h4         1 E1D       0.030100
     27 H14          2.2130    -1.1870    -1.1360 ha         1 E1D       0.155000
     28 H15          7.1400     0.1430     0.4040 ho         1 E1D       0.473000
     29 C8          -3.8690    -2.9560     0.3890 c3         1 E1D       0.081300
     30 C9          -3.3220     2.8460     0.1200 c3         1 E1D       0.204100
     31 N1           1.2100     0.9500     0.2030 nu         1 E1D      -0.927900
     32 F1           4.6490    -2.0420    -1.3850 f          1 E1D      -0.169500
     33 H3          -3.1640    -3.2200     1.1860 h1         1 E1D       0.052700
     34 H4          -4.8790    -3.1870     0.7480 h1         1 E1D       0.052700
     35 H5          -3.6560    -3.5670    -0.4980 h1         1 E1D       0.052700
     36 H6          -3.3470     3.3020    -0.8790 h1         1 E1D       0.049367
     37 H7          -4.1450     3.2570     0.7170 h1         1 E1D       0.049367
     38 H8          -2.3970     3.1630     0.6190 h1         1 E1D       0.049367
     39 H12          1.0940     1.9370     0.4320 hn         1 E1D       0.512000
@<TRIPOS>BOND
     1     1     3 ar  
     2     1    11 ar  
     3     1    15 1   
     4     2     9 ar  
     5     2    18 ar  
     6     2    32 1   
     7     3    12 ar  
     8     3    16 1   
     9     4     6 1   
    10     4    15 1   
    11     4    17 2   
    12     5     8 ar  
    13     5    13 ar  
    14     5    21 1   
    15     6     7 1   
    16     6    16 1   
    17     6    22 1   
    18     7    23 1   
    19     7    24 1   
    20     7    25 1   
    21     8     9 ar  
    22     8    20 1   
    23     9    19 1   
    24    10    11 ar  
    25    10    14 ar  
    26    11    26 1   
    27    12    14 ar  
    28    13    18 ar  
    29    13    31 1   
    30    14    31 1   
    31    15    29 1   
    32    16    30 1   
    33    18    27 1   
    34    19    28 1   
    35    29    33 1   
    36    29    34 1   
    37    29    35 1   
    38    30    36 1   
    39    30    37 1   
    40    30    38 1   
    41    31    39 1   
@<TRIPOS>SUBSTRUCTURE
     1 E1D         1 TEMP              0 ****  ****    0 ROOT
