@<TRIPOS>MOLECULE
E1E
   37    38     1     0     0
SMALL
No Charge or Current Charge


@<TRIPOS>ATOM
      1 C2          -2.1290     1.5880    -0.0230 ca         1 E1E      -0.076000
      2 C4          -3.5150    -0.4200     0.0270 ca         1 E1E      -0.235500
      3 C5          -2.3400    -1.2030     0.0430 ca         1 E1E      -0.025000
      4 C3          -3.4000     0.9880    -0.0010 ca         1 E1E       0.199000
      5 S6          -5.1120    -1.2480     0.0510 sy         1 E1E       1.162600
      6 O8          -4.9460    -2.6990     0.0850 o          1 E1E      -0.540000
      7 N11         -5.7110    -0.8960     1.5250 n8         1 E1E      -1.045100
      8 O7          -6.0610    -0.6070    -0.8550 o          1 E1E      -0.540000
      9 C22         -0.9470     0.8120    -0.0150 ca         1 E1E      -0.114600
     10 C1          -1.0720    -0.5960     0.0200 ca         1 E1E      -0.096000
     11 C9           0.4070     1.4990    -0.0390 c          1 E1E       0.589700
     12 O12          0.4820     2.7230    -0.0670 o          1 E1E      -0.489100
     13 C10          1.6770     0.6270    -0.0280 c3         1 E1E      -0.087400
     14 S13          3.2700     1.5950    -0.0620 ss         1 E1E      -0.234300
     15 C14          4.5530     0.3450    -0.0420 ca         1 E1E       0.228300
     16 N17          5.8260     0.7950    -0.0600 nb         1 E1E      -0.195500
     17 C18          6.8050    -0.1310    -0.0480 ca         1 E1E       0.144800
     18 C21          8.2360     0.3760    -0.0650 c3         1 E1E      -0.151900
     19 C19          6.5100    -1.5030    -0.0120 ca         1 E1E      -0.230000
     20 C16          5.1560    -1.8770     0.0070 ca         1 E1E       0.144800
     21 N15          4.1760    -0.9520    -0.0100 nb         1 E1E      -0.195500
     22 C20          4.7310    -3.3330     0.0390 c3         1 E1E      -0.151900
     23 H1          -2.0710     2.6740    -0.0430 ha         1 E1E       0.154000
     24 H2          -2.3990    -2.2900     0.0690 ha         1 E1E       0.149000
     25 H3          -6.0240    -1.8200     1.8120 hn         1 E1E       0.493000
     26 H4          -6.5840    -0.4520     1.2510 hn         1 E1E       0.493000
     27 H5          -0.1970    -1.2400     0.0310 ha         1 E1E       0.128000
     28 H6           1.6500     0.0100     0.8780 h1         1 E1E       0.100200
     29 H7           1.6370    -0.0320    -0.9030 h1         1 E1E       0.100200
     30 H8           8.5600     0.6590     0.9430 hc         1 E1E       0.057700
     31 H9           8.9260    -0.3910    -0.4360 hc         1 E1E       0.057700
     32 H10          8.3400     1.2550    -0.7120 hc         1 E1E       0.057700
     33 H11          7.3000    -2.2490    -0.0000 ha         1 E1E       0.133000
     34 H12          4.4770    -3.6870    -0.9670 hc         1 E1E       0.057700
     35 H13          5.5310    -3.9740     0.4290 hc         1 E1E       0.057700
     36 H14          3.8510    -3.4780     0.6790 hc         1 E1E       0.057700
     37 Cl1         -4.7990     2.0650     0.0120 cl         1 E1E      -0.158000
@<TRIPOS>BOND
     1     1     4 ar  
     2     1     9 ar  
     3     1    23 1   
     4     2     3 ar  
     5     2     4 ar  
     6     2     5 1   
     7     3    10 ar  
     8     3    24 1   
     9     4    37 1   
    10     5     6 2   
    11     5     7 1   
    12     5     8 2   
    13     7    25 1   
    14     7    26 1   
    15     9    10 ar  
    16     9    11 1   
    17    10    27 1   
    18    11    12 2   
    19    11    13 1   
    20    13    14 1   
    21    13    28 1   
    22    13    29 1   
    23    14    15 1   
    24    15    16 ar  
    25    15    21 ar  
    26    16    17 ar  
    27    17    18 1   
    28    17    19 ar  
    29    18    30 1   
    30    18    31 1   
    31    18    32 1   
    32    19    20 ar  
    33    19    33 1   
    34    20    21 ar  
    35    20    22 1   
    36    22    34 1   
    37    22    35 1   
    38    22    36 1   
@<TRIPOS>SUBSTRUCTURE
     1 E1E         1 TEMP              0 ****  ****    0 ROOT
