@<TRIPOS>MOLECULE
E1E
   37    38     1     0     0
SMALL
bcc


@<TRIPOS>ATOM
      1 C2          -2.0130     1.5120    -0.0350 ca         1 E1E      -0.094000
      2 C4          -3.4240    -0.4350     0.0370 ca         1 E1E      -0.235500
      3 C5          -2.3000    -1.2450     0.0470 ca         1 E1E      -0.043000
      4 C3          -3.2750     0.9510    -0.0090 ca         1 E1E       0.107400
      5 S6          -5.0300    -1.2130     0.0460 sy         1 E1E       1.304200
      6 O8          -4.7920    -2.6440     0.1270 o          1 E1E      -0.610800
      7 N11         -5.6850    -0.6590     1.4380 n8         1 E1E      -0.934700
      8 O7          -5.7970    -0.6750    -1.0620 o          1 E1E      -0.610800
      9 C22         -0.8840     0.6970    -0.0250 ca         1 E1E      -0.114600
     10 C1          -1.0340    -0.6840     0.0160 ca         1 E1E      -0.114000
     11 C9           0.4570     1.3530    -0.0530 c          1 E1E       0.589700
     12 O12          0.5610     2.5570    -0.0820 o          1 E1E      -0.489100
     13 C10          1.6690     0.4610    -0.0440 c3         1 E1E      -0.135300
     14 S13          3.1480     1.4980    -0.0400 ss         1 E1E      -0.186400
     15 C14          4.4090     0.2710    -0.0340 ca         1 E1E       0.754300
     16 N17          5.6280     0.7860     0.0070 nb         1 E1E      -0.721500
     17 C18          6.6400    -0.0780     0.0160 ca         1 E1E       0.473100
     18 C21          8.0210     0.4850     0.0790 c3         1 E1E      -0.151900
     19 C19          6.4040    -1.4480    -0.0200 ca         1 E1E      -0.378600
     20 C16          5.0880    -1.8810    -0.0650 ca         1 E1E       0.473100
     21 N15          4.0810    -1.0050    -0.0700 nb         1 E1E      -0.721500
     22 C20          4.7280    -3.3290    -0.1220 c3         1 E1E      -0.151900
     23 H1          -1.9080     2.5870    -0.0650 ha         1 E1E       0.172000
     24 H2          -2.4040    -2.3200     0.0810 ha         1 E1E       0.167000
     25 H3          -5.5990    -1.2920     2.2240 hn         1 E1E       0.437800
     26 H4          -6.6150    -0.2730     1.3360 hn         1 E1E       0.437800
     27 H5          -0.1800    -1.3470     0.0260 ha         1 E1E       0.146000
     28 H6           1.6570    -0.1850     0.8360 h1         1 E1E       0.100200
     29 H7           1.6610    -0.1900    -0.9200 h1         1 E1E       0.100200
     30 H8           8.1840     0.9690     1.0440 hc         1 E1E       0.057700
     31 H9           8.7770    -0.2870    -0.0460 hc         1 E1E       0.057700
     32 H10          8.1630     1.2440    -0.6900 hc         1 E1E       0.057700
     33 H11          7.2220    -2.1540    -0.0140 ha         1 E1E       0.151000
     34 H12          4.2760    -3.5640    -1.0870 hc         1 E1E       0.057700
     35 H13          5.5990    -3.9660     0.0110 hc         1 E1E       0.057700
     36 H14          3.9930    -3.5710     0.6450 hc         1 E1E       0.057700
     37 CL1         -4.6330     2.0090    -0.0180 cl         1 E1E      -0.066400
@<TRIPOS>BOND
     1     1     4 ar  
     2     1     9 ar  
     3     1    23 1   
     4     2     3 ar  
     5     2     4 ar  
     6     2     5 1   
     7     3    10 ar  
     8     3    24 1   
     9     4    37 1   
    10     5     6 2   
    11     5     7 1   
    12     5     8 2   
    13     7    25 1   
    14     7    26 1   
    15     9    10 ar  
    16     9    11 1   
    17    10    27 1   
    18    11    12 2   
    19    11    13 1   
    20    13    14 1   
    21    13    28 1   
    22    13    29 1   
    23    14    15 1   
    24    15    16 ar  
    25    15    21 ar  
    26    16    17 ar  
    27    17    18 1   
    28    17    19 ar  
    29    18    30 1   
    30    18    31 1   
    31    18    32 1   
    32    19    20 ar  
    33    19    33 1   
    34    20    21 ar  
    35    20    22 1   
    36    22    34 1   
    37    22    35 1   
    38    22    36 1   
@<TRIPOS>SUBSTRUCTURE
     1 E1E         1 TEMP              0 ****  ****    0 ROOT
