@<TRIPOS>MOLECULE
E1F
   31    32     1     0     0
SMALL
bcc


@<TRIPOS>ATOM
      1 O18          5.2340     0.6110    -1.2190 o          1 E1F      -0.592800
      2 C13         -7.1570     0.4020     0.0010 ca         1 E1F       0.451200
      3 C1           0.3370    -0.5720     0.0450 ca         1 E1F      -0.115600
      4 C2           2.7160    -0.9020    -0.0090 ca         1 E1F       0.088400
      5 CL1          4.0430    -2.0050    -0.0260 cl         1 E1F      -0.079400
      6 C21          1.4380    -1.4240     0.0220 ca         1 E1F      -0.089000
      7 C5           0.5340     0.8040     0.0460 ca         1 E1F      -0.110000
      8 C4           1.8180     1.3250     0.0210 ca         1 E1F      -0.037000
      9 C3           2.9150     0.4780    -0.0080 ca         1 E1F      -0.278500
     10 S16          4.5460     1.2090    -0.0920 sy         1 E1F       1.302200
     11 N19          5.3560     0.7880     1.2580 n8         1 E1F      -0.910700
     12 O17          4.3560     2.6460    -0.0340 o          1 E1F      -0.592800
     13 O12         -1.1660    -2.3830     0.0950 o          1 E1F      -0.487100
     14 C7          -2.2080    -0.2560     0.0510 c3         1 E1F      -0.138300
     15 S8          -3.7130    -1.2560     0.0700 ss         1 E1F      -0.175400
     16 C9          -4.9420    -0.0040     0.0300 ca         1 E1F       0.736300
     17 N11         -4.5930     1.2700     0.0020 nb         1 E1F      -0.706500
     18 C14         -5.5880     2.1520    -0.0290 ca         1 E1F       0.451200
     19 C15         -6.9150     1.7680    -0.0320 ca         1 E1F      -0.376600
     20 N10         -6.1780    -0.4890     0.0310 nb         1 E1F      -0.706500
     21 H2           1.2990    -2.4960     0.0250 ha         1 E1F       0.173000
     22 H3          -0.2960     1.4950     0.0650 ha         1 E1F       0.148000
     23 H4           1.9560     2.3960     0.0220 ha         1 E1F       0.171000
     24 H5           5.6210    -0.1870     1.3300 hn         1 E1F       0.434800
     25 H6           4.9760     1.1590     2.1210 hn         1 E1F       0.434800
     26 H7          -2.1810     0.4090     0.9170 h1         1 E1F       0.101200
     27 H8          -2.1810     0.3740    -0.8400 h1         1 E1F       0.101200
     28 H9          -5.3070     3.1990    -0.0530 h4         1 E1F       0.027600
     29 H10         -7.7180     2.4880    -0.0580 ha         1 E1F       0.156000
     30 C6          -1.0240    -1.1840     0.0680 c          1 E1F       0.589700
     31 H1          -8.1690     0.0130     0.0010 h4         1 E1F       0.027600
@<TRIPOS>BOND
     1     1    10 2   
     2     2    19 ar  
     3     2    20 ar  
     4     2    31 1   
     5     3     6 ar  
     6     3     7 ar  
     7     3    30 1   
     8     4     5 1   
     9     4     6 ar  
    10     4     9 ar  
    11     6    21 1   
    12     7     8 ar  
    13     7    22 1   
    14     8     9 ar  
    15     8    23 1   
    16     9    10 1   
    17    10    11 1   
    18    10    12 2   
    19    11    24 1   
    20    11    25 1   
    21    13    30 2   
    22    14    15 1   
    23    14    26 1   
    24    14    27 1   
    25    14    30 1   
    26    15    16 1   
    27    16    17 ar  
    28    16    20 ar  
    29    17    18 ar  
    30    18    19 ar  
    31    18    28 1   
    32    19    29 1   
@<TRIPOS>SUBSTRUCTURE
     1 E1F         1 TEMP              0 ****  ****    0 ROOT
