@<TRIPOS>MOLECULE
E1F
   31    32     1     0     0
SMALL
No Charge or Current Charge


@<TRIPOS>ATOM
      1 O18          5.4840     0.5410    -0.9620 o          1 E1F      -0.522000
      2 C13         -7.3550     0.5390     0.0230 ca         1 E1F       0.122900
      3 C1           0.3660    -0.6530     0.0570 ca         1 E1F      -0.115600
      4 C2           2.8100    -0.9110     0.0620 ca         1 E1F       0.180000
      5 Cl1          4.1740    -2.0280     0.1430 cl         1 E1F      -0.171000
      6 C21          1.5200    -1.4680     0.0890 ca         1 E1F      -0.071000
      7 C5           0.5390     0.7490     0.0030 ca         1 E1F      -0.092000
      8 C4           1.8260     1.3120    -0.0240 ca         1 E1F      -0.019000
      9 C3           2.9750     0.4910     0.0010 ca         1 E1F      -0.278500
     10 S16          4.5990     1.2650    -0.0520 sy         1 E1F       1.160600
     11 N19          5.2090     0.9330     1.4310 n8         1 E1F      -1.021100
     12 O17          4.4600     2.7200    -0.0910 o          1 E1F      -0.522000
     13 O12         -1.1280    -2.5120     0.1380 o          1 E1F      -0.487100
     14 C7          -2.2510    -0.3790     0.0530 c3         1 E1F      -0.090400
     15 S8          -3.8740    -1.2950     0.0920 ss         1 E1F      -0.223300
     16 C9          -5.1180    -0.0060     0.0420 ca         1 E1F       0.210300
     17 N11         -4.7020     1.2800    -0.0090 nb         1 E1F      -0.180500
     18 C14         -5.6550     2.2330    -0.0460 ca         1 E1F       0.122900
     19 C15         -7.0190     1.9010    -0.0310 ca         1 E1F      -0.228000
     20 N10         -6.4050    -0.4170     0.0590 nb         1 E1F      -0.180500
     21 H2           1.4250    -2.5510     0.1390 ha         1 E1F       0.155000
     22 H3          -0.3140     1.4230    -0.0210 ha         1 E1F       0.130000
     23 H4           1.9190     2.3970    -0.0680 ha         1 E1F       0.153000
     24 H5           6.2080     0.9610     1.2410 hn         1 E1F       0.490000
     25 H6           5.0180    -0.0620     1.5190 hn         1 E1F       0.490000
     26 H7          -2.1950     0.2920     0.9180 h1         1 E1F       0.101200
     27 H8          -2.1980     0.2210    -0.8620 h1         1 E1F       0.101200
     28 H9          -5.3200     3.2680    -0.0870 h4         1 E1F       0.027600
     29 H10         -7.7870     2.6700    -0.0610 ha         1 E1F       0.138000
     30 C6          -1.0110    -1.2930     0.0880 c          1 E1F       0.589700
     31 H1          -8.3920     0.2070     0.0370 h4         1 E1F       0.027600
@<TRIPOS>BOND
     1     1    10 2   
     2     2    19 ar  
     3     2    20 ar  
     4     2    31 1   
     5     3     6 ar  
     6     3     7 ar  
     7     3    30 1   
     8     4     5 1   
     9     4     6 ar  
    10     4     9 ar  
    11     6    21 1   
    12     7     8 ar  
    13     7    22 1   
    14     8     9 ar  
    15     8    23 1   
    16     9    10 1   
    17    10    11 1   
    18    10    12 2   
    19    11    24 1   
    20    11    25 1   
    21    13    30 2   
    22    14    15 1   
    23    14    26 1   
    24    14    27 1   
    25    14    30 1   
    26    15    16 1   
    27    16    17 ar  
    28    16    20 ar  
    29    17    18 ar  
    30    18    19 ar  
    31    18    28 1   
    32    19    29 1   
@<TRIPOS>SUBSTRUCTURE
     1 E1F         1 TEMP              0 ****  ****    0 ROOT
