@<TRIPOS>MOLECULE
E1G
   31    32     1     0     0
SMALL
abcg2


@<TRIPOS>ATOM
      1 O19         -5.7050    -0.4400    -0.9480 o          1 E1G      -0.539000
      2 S17         -4.8420     0.3680    -0.1000 sy         1 E1G       1.129600
      3 O18         -4.6470     1.7700    -0.4370 o          1 E1G      -0.539000
      4 N20         -5.3820     0.1420     1.4420 n8         1 E1G      -1.009100
      5 C4          -3.2430    -0.3940    -0.0100 ca         1 E1G      -0.281500
      6 C5          -3.1680    -1.7810     0.0650 ca         1 E1G       0.024000
      7 C6          -1.9250    -2.3830     0.1160 ca         1 E1G      -0.144000
      8 C1          -0.7730    -1.6080     0.0910 ca         1 E1G      -0.019000
      9 C3          -2.1070     0.3910    -0.0360 ca         1 E1G       0.037000
     10 C2          -0.8540    -0.2210     0.0160 ca         1 E1G      -0.195600
     11 C7           0.3540     0.6460    -0.0150 c          1 E1G       0.595700
     12 O13          0.2630     1.8510    -0.0650 o          1 E1G      -0.497100
     13 C8           1.7010    -0.0280     0.0170 c3         1 E1G      -0.091400
     14 S9           2.9770     1.2500    -0.0220 ss         1 E1G      -0.219300
     15 C10          4.4300     0.2680    -0.0060 ca         1 E1G       0.210300
     16 N12          4.3450    -1.0500     0.0270 nb         1 E1G      -0.181000
     17 C15          5.4960    -1.7150     0.0360 ca         1 E1G       0.122900
     18 C16          6.7200    -1.0730     0.0130 ca         1 E1G      -0.230000
     19 C14          6.6830     0.3130    -0.0210 ca         1 E1G       0.122900
     20 N11          5.5450     0.9900    -0.0300 nb         1 E1G      -0.181000
     21 H1          -6.3950     0.2020     1.4960 hn         1 E1G       0.476500
     22 H2          -4.9550     0.7770     2.1090 hn         1 E1G       0.476500
     23 H3          -4.0630    -2.3880     0.0830 ha         1 E1G       0.138000
     24 H4          -1.8490    -3.4600     0.1720 ha         1 E1G       0.126000
     25 H5           0.1850    -2.1090     0.1320 ha         1 E1G       0.122000
     26 H6          -2.1810     1.4680    -0.0970 ha         1 E1G       0.160000
     27 H7           1.7980    -0.6380     0.9180 h1         1 E1G       0.098200
     28 H8           1.8080    -0.7000    -0.8370 h1         1 E1G       0.098200
     29 H9           5.4310    -2.7960     0.0630 h4         1 E1G       0.026600
     30 H10          7.6510    -1.6190     0.0210 ha         1 E1G       0.137000
     31 H11          7.5960     0.8970    -0.0410 h4         1 E1G       0.026600
@<TRIPOS>BOND
     1     1     2 2   
     2     2     3 2   
     3     2     4 1   
     4     2     5 1   
     5     4    21 1   
     6     4    22 1   
     7     5     6 ar  
     8     5     9 ar  
     9     6     7 ar  
    10     6    23 1   
    11     7     8 ar  
    12     7    24 1   
    13     8    10 ar  
    14     8    25 1   
    15     9    10 ar  
    16     9    26 1   
    17    10    11 1   
    18    11    12 2   
    19    11    13 1   
    20    13    14 1   
    21    13    27 1   
    22    13    28 1   
    23    14    15 1   
    24    15    16 ar  
    25    15    20 ar  
    26    16    17 ar  
    27    17    18 ar  
    28    17    29 1   
    29    18    19 ar  
    30    18    30 1   
    31    19    20 ar  
    32    19    31 1   
@<TRIPOS>SUBSTRUCTURE
     1 E1G         1 TEMP              0 ****  ****    0 ROOT
