@<TRIPOS>MOLECULE
E1G
   31    32     1     0     0
SMALL
No Charge or Current Charge


@<TRIPOS>ATOM
      1 O19         -5.9790    -0.6790    -0.4610 o          1 E1G      -0.539000
      2 S17         -4.9740     0.2770    -0.0010 sy         1 E1G       1.129600
      3 O18         -4.9280     1.6540    -0.4840 o          1 E1G      -0.539000
      4 N20         -5.2980     0.4390     1.5880 n8         1 E1G      -1.009100
      5 C4          -3.3390    -0.4580    -0.0040 ca         1 E1G      -0.281500
      6 C5          -3.1960    -1.8570    -0.0120 ca         1 E1G       0.024000
      7 C6          -1.9130    -2.4250    -0.0150 ca         1 E1G      -0.144000
      8 C1          -0.7710    -1.6070    -0.0080 ca         1 E1G      -0.019000
      9 C3          -2.1960     0.3680     0.0060 ca         1 E1G       0.037000
     10 C2          -0.9000    -0.1970     0.0030 ca         1 E1G      -0.195600
     11 C7           0.3110     0.7120     0.0130 c          1 E1G       0.595700
     12 O13          0.1710     1.9300     0.0210 o          1 E1G      -0.497100
     13 C8           1.7150     0.0780     0.0130 c3         1 E1G      -0.091400
     14 S9           3.1100     1.3130     0.0290 ss         1 E1G      -0.219300
     15 C10          4.5960     0.3110     0.0260 ca         1 E1G       0.210300
     16 N12          4.4590    -1.0340     0.0150 nb         1 E1G      -0.181000
     17 C15          5.5900    -1.7670     0.0130 ca         1 E1G       0.122900
     18 C16          6.8550    -1.1570     0.0230 ca         1 E1G      -0.230000
     19 C14          6.8980     0.2460     0.0340 ca         1 E1G       0.122900
     20 N11          5.7690     0.9830     0.0360 nb         1 E1G      -0.181000
     21 H1          -6.1920    -0.0440     1.6420 hn         1 E1G       0.476500
     22 H2          -5.5830     1.4150     1.6180 hn         1 E1G       0.476500
     23 H3          -4.0710    -2.5070    -0.0150 ha         1 E1G       0.138000
     24 H4          -1.8030    -3.5070    -0.0220 ha         1 E1G       0.126000
     25 H5           0.2040    -2.0870    -0.0110 ha         1 E1G       0.122000
     26 H6          -2.3180     1.4520     0.0170 ha         1 E1G       0.160000
     27 H7           1.7920    -0.5630     0.9000 h1         1 E1G       0.098200
     28 H8           1.7990    -0.5480    -0.8820 h1         1 E1G       0.098200
     29 H9           5.4790    -2.8500     0.0040 h4         1 E1G       0.026600
     30 H10          7.7660    -1.7490     0.0210 ha         1 E1G       0.137000
     31 H11          7.8420     0.7880     0.0420 h4         1 E1G       0.026600
@<TRIPOS>BOND
     1     1     2 2   
     2     2     3 2   
     3     2     4 1   
     4     2     5 1   
     5     4    21 1   
     6     4    22 1   
     7     5     6 ar  
     8     5     9 ar  
     9     6     7 ar  
    10     6    23 1   
    11     7     8 ar  
    12     7    24 1   
    13     8    10 ar  
    14     8    25 1   
    15     9    10 ar  
    16     9    26 1   
    17    10    11 1   
    18    11    12 2   
    19    11    13 1   
    20    13    14 1   
    21    13    27 1   
    22    13    28 1   
    23    14    15 1   
    24    15    16 ar  
    25    15    20 ar  
    26    16    17 ar  
    27    17    18 ar  
    28    17    29 1   
    29    18    19 ar  
    30    18    30 1   
    31    19    20 ar  
    32    19    31 1   
@<TRIPOS>SUBSTRUCTURE
     1 E1G         1 TEMP              0 ****  ****    0 ROOT
