@<TRIPOS>MOLECULE
E1H
    8     7     1     0     0
SMALL
abcg2


@<TRIPOS>ATOM
      1 N1          -1.1570    -0.3210    -0.0290 n2         1 E1H      -0.750100
      2 CA1         -0.1290     0.4150     0.0120 c2         1 E1H       0.420200
      3 CB1          1.2540    -0.1660     0.0160 c3         1 E1H      -0.150400
      4 HN11        -1.9980     0.2490    -0.0230 hn         1 E1H       0.372400
      5 HA12        -0.1910     1.5050     0.0480 h4         1 E1H      -0.045200
      6 HB11         1.3990    -0.8110     0.8830 hc         1 E1H       0.051033
      7 HB12         1.4190    -0.7760    -0.8730 hc         1 E1H       0.051033
      8 HB13         2.0110     0.6140     0.0410 hc         1 E1H       0.051033
@<TRIPOS>BOND
     1     1     2 2   
     2     1     4 1   
     3     2     3 1   
     4     2     5 1   
     5     3     6 1   
     6     3     7 1   
     7     3     8 1   
@<TRIPOS>SUBSTRUCTURE
     1 E1H         1 TEMP              0 ****  ****    0 ROOT
