@<TRIPOS>MOLECULE
E1H
    8     7     1     0     0
SMALL
No Charge or Current Charge


@<TRIPOS>ATOM
      1 N1          -1.1790    -0.3260    -0.0230 n2         1 E1H      -0.750100
      2 CA1         -0.1260     0.4080     0.0110 c2         1 E1H       0.420200
      3 CB1          1.2640    -0.1750     0.0160 c3         1 E1H      -0.150400
      4 HN11        -2.0100     0.2850    -0.0190 hn         1 E1H       0.372400
      5 HA12        -0.2170     1.4900     0.0370 h4         1 E1H      -0.045200
      6 HB11         1.4170    -0.8190     0.8900 hc         1 E1H       0.051033
      7 HB12         1.4430    -0.7730    -0.8840 hc         1 E1H       0.051033
      8 HB13         2.0170     0.6200     0.0470 hc         1 E1H       0.051033
@<TRIPOS>BOND
     1     1     2 2   
     2     1     4 1   
     3     2     3 1   
     4     2     5 1   
     5     3     6 1   
     6     3     7 1   
     7     3     8 1   
@<TRIPOS>SUBSTRUCTURE
     1 E1H         1 TEMP              0 ****  ****    0 ROOT
