@<TRIPOS>MOLECULE
E1I
   72    77     1     0     0
SMALL
No Charge or Current Charge


@<TRIPOS>ATOM
      1 C01        -20.3680     8.5370    28.8020 c3         1 E1I       0.074300
      2 N08        -17.5340     3.9350    30.1070 na         1 E1I       0.028000
      3 N02        -19.4390     7.3770    28.8920 n          1 E1I      -0.330300
      4 C03        -18.4940     7.4300    29.9230 c          1 E1I       0.602600
      5 C05        -17.8620     6.1410    30.1970 cc         1 E1I      -0.258600
      6 C06        -16.9030     5.7810    31.1880 cc         1 E1I      -0.016000
      7 C07        -16.6930     4.4220    31.1150 cd         1 E1I      -0.171000
      8 C10        -19.0550     2.0180    29.5920 c          1 E1I       0.589100
      9 C13        -20.8280     1.4890    27.8110 ca         1 E1I       0.067000
     10 C14        -21.9700     1.3560    28.6220 ca         1 E1I      -0.268000
     11 C15        -23.1990     0.9930    28.0460 ca         1 E1I       0.656900
     12 C17        -22.2560     0.8990    25.9450 ca         1 E1I       0.428900
     13 C18        -20.9870     1.2590    26.4340 ca         1 E1I      -0.064000
     14 C21        -24.3320     0.7130    30.2960 c6         1 E1I       0.197300
     15 C22        -25.6100     0.0470    30.8870 c6         1 E1I       0.141600
     16 C24        -26.9150     0.6190    28.9540 c6         1 E1I       0.141600
     17 C25        -25.7030     1.3110    28.2640 c6         1 E1I       0.197300
     18 C26        -18.2320     5.0090    29.5570 cd         1 E1I       0.158400
     19 C28        -19.6000     6.1960    28.1420 cc         1 E1I       0.629500
     20 C29        -20.3350     6.2480    26.8890 cc         1 E1I      -0.291900
     21 C30        -20.7920     7.3350    26.1170 cc         1 E1I       0.279900
     22 C34        -20.6580     5.1280    26.1710 cd         1 E1I      -0.090000
     23 C35        -16.0210     6.5810    32.0540 ca         1 E1I      -0.046000
     24 C36        -15.5580     6.0490    33.2760 ca         1 E1I      -0.045000
     25 C37        -14.7050     6.7880    34.1220 ca         1 E1I      -0.177300
     26 C38        -14.2500     6.1690    35.4430 c3         1 E1I      -0.048800
     27 C39        -14.2940     8.0810    33.7320 ca         1 E1I       0.176100
     28 C41        -14.7290     8.6140    32.5010 ca         1 E1I      -0.055000
     29 C42        -15.5800     7.8620    31.6700 ca         1 E1I      -0.005000
     30 C43        -14.3050     9.9170    32.0650 cg         1 E1I       0.345000
     31 N12        -19.5510     1.8710    28.3040 ns         1 E1I      -0.150000
     32 N16        -23.3450     0.7660    26.7320 nb         1 E1I      -0.762000
     33 N20        -24.3780     0.8330    28.7990 nh         1 E1I      -0.795300
     34 N27        -19.1030     5.0050    28.4890 nd         1 E1I      -0.667100
     35 N31        -21.3970     6.9830    25.0000 nd         1 E1I      -0.519800
     36 N32        -21.3190     5.6000    25.0360 na         1 E1I       0.122800
     37 N44        -13.9700    10.9730    31.6950 n1         1 E1I      -0.461000
     38 O04        -18.2780     8.4490    30.5650 o          1 E1I      -0.546000
     39 O11        -19.6890     1.7500    30.6070 o          1 E1I      -0.546100
     40 O23        -26.8060     0.6940    30.3940 os         1 E1I      -0.462000
     41 O40        -13.4660     8.8060    34.5460 oh         1 E1I      -0.525100
     42 Cl19       -19.6230     1.4200    25.3190 cl         1 E1I      -0.209000
     43 H1         -20.5230     8.9890    29.7900 h1         1 E1I       0.058700
     44 H2         -19.9510     9.3000    28.1330 h1         1 E1I       0.058700
     45 H3         -21.3560     8.2170    28.4500 h1         1 E1I       0.058700
     46 H4         -16.0020     3.7830    31.6520 h4         1 E1I       0.151000
     47 H5         -17.0590     1.8960    30.3540 h1         1 E1I       0.087200
     48 H6         -17.1530     2.4530    28.6690 h1         1 E1I       0.087200
     49 H7         -21.9220     1.5540    29.6840 ha         1 E1I       0.159000
     50 H8         -22.4040     0.7140    24.8820 h4         1 E1I       0.032100
     51 H10        -23.4680     0.1050    30.6060 h1         1 E1I       0.064200
     52 H11        -25.6360    -1.0180    30.6110 h1         1 E1I       0.055450
     53 H12        -25.5900     0.1120    31.9840 h1         1 E1I       0.055450
     54 H13        -26.9620    -0.4370    28.6500 h1         1 E1I       0.055450
     55 H14        -27.8500     1.1030    28.6370 h1         1 E1I       0.055450
     56 H15        -25.7930     1.1270    27.1830 h1         1 E1I       0.064200
     57 H16        -25.7910     2.3980    28.4090 h1         1 E1I       0.064200
     58 H17        -20.6830     8.3930    26.2990 h4         1 E1I       0.046100
     59 H21        -20.4860     4.0760    26.3630 h4         1 E1I       0.170000
     60 H22        -15.8840     5.0600    33.5890 ha         1 E1I       0.112000
     61 H23        -13.1580     6.0800    35.4860 hc         1 E1I       0.044033
     62 H24        -14.5780     6.7720    36.2990 hc         1 E1I       0.044033
     63 H25        -14.6600     5.1620    35.5840 hc         1 E1I       0.044033
     64 H26        -15.8600     8.2640    30.7010 ha         1 E1I       0.148000
     65 H27        -18.8920     2.1100    27.5740 hn         1 E1I       0.165000
     66 H28        -13.2770     8.2700    35.3440 ho         1 E1I       0.470000
     67 C09        -17.6150     2.5360    29.6600 c3         1 E1I      -0.001400
     68 C33        -21.8840     4.7820    23.9540 c3         1 E1I       0.073900
     69 H9         -24.2120     1.7080    30.7490 h1         1 E1I       0.064200
     70 H18        -21.5810     5.1940    22.9840 h1         1 E1I       0.061700
     71 H19        -21.5170     3.7510    24.0380 h1         1 E1I       0.061700
     72 H20        -22.9770     4.7850    24.0270 h1         1 E1I       0.061700
@<TRIPOS>BOND
     1     1     3 1   
     2     1    43 1   
     3     1    44 1   
     4     1    45 1   
     5     2     7 1   
     6     2    18 1   
     7     2    67 1   
     8     3     4 1   
     9     3    19 1   
    10     4     5 1   
    11     4    38 2   
    12     5     6 1   
    13     5    18 2   
    14     6     7 2   
    15     6    23 1   
    16     7    46 1   
    17     8    31 1   
    18     8    39 2   
    19     8    67 1   
    20     9    10 ar  
    21     9    13 ar  
    22     9    31 1   
    23    10    11 ar  
    24    10    49 1   
    25    11    32 ar  
    26    11    33 1   
    27    12    13 ar  
    28    12    32 ar  
    29    12    50 1   
    30    13    42 1   
    31    14    15 1   
    32    14    33 1   
    33    14    51 1   
    34    14    69 1   
    35    15    40 1   
    36    15    52 1   
    37    15    53 1   
    38    16    17 1   
    39    16    40 1   
    40    16    54 1   
    41    16    55 1   
    42    17    33 1   
    43    17    56 1   
    44    17    57 1   
    45    18    34 1   
    46    19    20 1   
    47    19    34 2   
    48    20    21 1   
    49    20    22 2   
    50    21    35 2   
    51    21    58 1   
    52    22    36 1   
    53    22    59 1   
    54    23    24 ar  
    55    23    29 ar  
    56    24    25 ar  
    57    24    60 1   
    58    25    26 1   
    59    25    27 ar  
    60    26    61 1   
    61    26    62 1   
    62    26    63 1   
    63    27    28 ar  
    64    27    41 1   
    65    28    29 ar  
    66    28    30 1   
    67    29    64 1   
    68    30    37 3   
    69    31    65 1   
    70    35    36 1   
    71    36    68 1   
    72    41    66 1   
    73    47    67 1   
    74    48    67 1   
    75    68    70 1   
    76    68    71 1   
    77    68    72 1   
@<TRIPOS>SUBSTRUCTURE
     1 E1I         1 TEMP              0 ****  ****    0 ROOT
