@<TRIPOS>MOLECULE
E1I
   72    77     1     0     0
SMALL
abcg2


@<TRIPOS>ATOM
      1 C01        -19.6730     9.4870    28.3800 c3         1 E1I       0.074300
      2 N08        -17.7090     4.4460    29.0640 na         1 E1I       0.028000
      3 N02        -19.0580     8.1570    28.4550 n          1 E1I      -0.330300
      4 C03        -18.2340     7.9350    29.5990 c          1 E1I       0.602600
      5 C05        -17.7750     6.5900    29.7180 cc         1 E1I      -0.258600
      6 C06        -17.0100     5.8480    30.6920 cc         1 E1I      -0.016000
      7 C07        -17.0090     4.5440    30.2500 cd         1 E1I      -0.171000
      8 C10        -19.3260     2.6190    28.7040 c          1 E1I       0.589100
      9 C13        -20.6840     0.6330    28.0680 ca         1 E1I       0.067000
     10 C14        -21.8110     0.8980    28.8300 ca         1 E1I      -0.268000
     11 C15        -22.8810    -0.0240    28.8260 ca         1 E1I       0.656900
     12 C17        -21.7700    -1.3870    27.3480 ca         1 E1I       0.428900
     13 C18        -20.6710    -0.5540    27.3070 ca         1 E1I      -0.064000
     14 C21        -24.0810     1.3160    30.5120 c6         1 E1I       0.197300
     15 C22        -25.1790     1.0460    31.5260 c6         1 E1I       0.141600
     16 C24        -26.4220     0.2350    29.6400 c6         1 E1I       0.141600
     17 C25        -25.1890    -0.6270    29.4450 c6         1 E1I       0.197300
     18 C26        -18.1900     5.6810    28.7410 cd         1 E1I       0.158400
     19 C28        -19.3220     7.1880    27.5120 cc         1 E1I       0.629500
     20 C29        -20.0780     7.5050    26.3030 cc         1 E1I      -0.291900
     21 C30        -20.1090     8.6580    25.4820 cc         1 E1I       0.279900
     22 C34        -20.8730     6.5890    25.6230 cd         1 E1I      -0.090000
     23 C35        -16.3250     6.3100    31.9040 ca         1 E1I      -0.046000
     24 C36        -16.2050     5.4620    33.0160 ca         1 E1I      -0.045000
     25 C37        -15.5250     5.8160    34.1730 ca         1 E1I      -0.177300
     26 C38        -15.4220     4.8770    35.3430 c3         1 E1I      -0.048800
     27 C39        -14.9420     7.0880    34.2340 ca         1 E1I       0.176100
     28 C41        -15.0570     7.9580    33.1400 ca         1 E1I      -0.055000
     29 C42        -15.7410     7.5690    31.9840 ca         1 E1I      -0.005000
     30 C43        -14.4690     9.2520    33.2110 cg         1 E1I       0.345000
     31 N12        -19.5790     1.4770    28.0020 ns         1 E1I      -0.150000
     32 N16        -22.8510    -1.1480    28.0850 nb         1 E1I      -0.762000
     33 N20        -23.9920     0.1970    29.5810 nh         1 E1I      -0.795300
     34 N27        -18.9150     5.9470    27.6420 nd         1 E1I      -0.667100
     35 N31        -20.8550     8.4610    24.4020 nd         1 E1I      -0.519800
     36 N32        -21.3190     7.1960    24.5130 na         1 E1I       0.122800
     37 N44        -14.0000    10.3050    33.2620 n1         1 E1I      -0.461000
     38 O04        -18.0130     8.8700    30.3700 o          1 E1I      -0.546000
     39 O11        -20.0680     3.1130    29.5330 o          1 E1I      -0.546100
     40 O23        -26.4620     0.8730    30.9230 os         1 E1I      -0.462000
     41 O40        -14.2650     7.5370    35.3180 oh         1 E1I      -0.525100
     42 CL19       -19.2940    -0.9760    26.3160 cl         1 E1I      -0.209000
     43 H1         -19.8340     9.8410    29.3920 h1         1 E1I       0.058700
     44 H2         -19.0200    10.1920    27.8650 h1         1 E1I       0.058700
     45 H3         -20.6220     9.4170    27.8610 h1         1 E1I       0.058700
     46 H4         -16.5350     3.6730    30.6710 h4         1 E1I       0.151000
     47 H5         -17.1800     2.5160    28.5380 h1         1 E1I       0.087200
     48 H6         -17.9640     3.4490    27.2640 h1         1 E1I       0.087200
     49 H7         -21.8560     1.8090    29.3950 ha         1 E1I       0.159000
     50 H8         -21.7690    -2.2970    26.7570 h4         1 E1I       0.032100
     51 H10        -23.1410     1.4250    31.0560 h1         1 E1I       0.064200
     52 H11        -24.9210     0.1580    32.1130 h1         1 E1I       0.055450
     53 H12        -25.2610     1.8930    32.2070 h1         1 E1I       0.055450
     54 H13        -27.3190    -0.3800    29.5590 h1         1 E1I       0.055450
     55 H14        -26.4550     1.0010    28.8570 h1         1 E1I       0.055450
     56 H15        -25.1820    -1.4550    30.1630 h1         1 E1I       0.064200
     57 H16        -25.2130    -1.0600    28.4480 h1         1 E1I       0.064200
     58 H17        -19.6050     9.6000    25.6180 h4         1 E1I       0.046100
     59 H21        -21.1400     5.5750    25.8670 h4         1 E1I       0.170000
     60 H22        -16.6720     4.4850    32.9820 ha         1 E1I       0.112000
     61 H23        -14.3800     4.6190    35.5580 hc         1 E1I       0.044033
     62 H24        -15.8450     5.3200    36.2500 hc         1 E1I       0.044033
     63 H25        -15.9600     3.9530    35.1390 hc         1 E1I       0.044033
     64 H26        -15.8160     8.2600    31.1600 ha         1 E1I       0.148000
     65 H27        -18.8540     1.1770    27.3630 hn         1 E1I       0.165000
     66 H28        -14.2410     6.8650    36.0130 ho         1 E1I       0.470000
     67 C09        -17.9730     3.2370    28.3330 c3         1 E1I      -0.001400
     68 C33        -22.2040     6.6520    23.5010 c3         1 E1I       0.073900
     69 H9         -24.2730     2.2590    29.9850 h1         1 E1I       0.064200
     70 H18        -21.7100     6.6760    22.5300 h1         1 E1I       0.061700
     71 H19        -22.4400     5.6240    23.7650 h1         1 E1I       0.061700
     72 H20        -23.1210     7.2390    23.4570 h1         1 E1I       0.061700
@<TRIPOS>BOND
     1     1     3 1   
     2     1    43 1   
     3     1    44 1   
     4     1    45 1   
     5     2     7 1   
     6     2    18 1   
     7     2    67 1   
     8     3     4 1   
     9     3    19 1   
    10     4     5 1   
    11     4    38 2   
    12     5     6 1   
    13     5    18 2   
    14     6     7 2   
    15     6    23 1   
    16     7    46 1   
    17     8    31 1   
    18     8    39 2   
    19     8    67 1   
    20     9    10 ar  
    21     9    13 ar  
    22     9    31 1   
    23    10    11 ar  
    24    10    49 1   
    25    11    32 ar  
    26    11    33 1   
    27    12    13 ar  
    28    12    32 ar  
    29    12    50 1   
    30    13    42 1   
    31    14    15 1   
    32    14    33 1   
    33    14    51 1   
    34    14    69 1   
    35    15    40 1   
    36    15    52 1   
    37    15    53 1   
    38    16    17 1   
    39    16    40 1   
    40    16    54 1   
    41    16    55 1   
    42    17    33 1   
    43    17    56 1   
    44    17    57 1   
    45    18    34 1   
    46    19    20 1   
    47    19    34 2   
    48    20    21 1   
    49    20    22 2   
    50    21    35 2   
    51    21    58 1   
    52    22    36 1   
    53    22    59 1   
    54    23    24 ar  
    55    23    29 ar  
    56    24    25 ar  
    57    24    60 1   
    58    25    26 1   
    59    25    27 ar  
    60    26    61 1   
    61    26    62 1   
    62    26    63 1   
    63    27    28 ar  
    64    27    41 1   
    65    28    29 ar  
    66    28    30 1   
    67    29    64 1   
    68    30    37 3   
    69    31    65 1   
    70    35    36 1   
    71    36    68 1   
    72    41    66 1   
    73    47    67 1   
    74    48    67 1   
    75    68    70 1   
    76    68    71 1   
    77    68    72 1   
@<TRIPOS>SUBSTRUCTURE
     1 E1I         1 TEMP              0 ****  ****    0 ROOT
