@<TRIPOS>MOLECULE
E1J
   60    62     1     0     0
SMALL
bcc


@<TRIPOS>ATOM
      1 C4           2.3040     0.4500     0.1120 ca         1 E1J       0.515600
      2 C5           1.1730    -0.3800     0.0640 ca         1 E1J      -0.357600
      3 C6          -0.0890     0.3070     0.0640 ca         1 E1J       0.767200
      4 N1          -0.1530     1.6210     0.0960 nb         1 E1J      -0.867000
      5 N2           7.3890    -3.1300    -1.0000 n8         1 E1J      -0.870800
      6 N3           2.2240     1.8000     0.1440 nb         1 E1J      -0.825000
      7 C1           7.2600    -2.3810     0.2370 c3         1 E1J       0.149800
      8 C2           1.0060     2.3110     0.1300 ca         1 E1J       0.964900
      9 CAA         -9.5580    -1.9020     0.3420 c2         1 E1J      -0.130000
     10 CAB         -8.2560    -2.0020     0.1070 ce         1 E1J      -0.252200
     11 CAC         -7.3420    -0.8390     0.2670 c          1 E1J       0.666300
     12 CAF         -5.0130    -0.1050     0.0420 c3         1 E1J       0.108000
     13 CAG         -3.6440    -0.7650     0.0310 c3         1 E1J      -0.118400
     14 CAH         -2.5390     0.2780     0.0470 c3         1 E1J       0.238800
     15 CAO          3.5830    -0.1530     0.1240 ca         1 E1J      -0.297300
     16 CAP          3.7250    -1.5180     0.0840 ca         1 E1J       0.173100
     17 CAR          6.0910    -1.4230     0.1980 c3         1 E1J       0.138400
     18 CAS          2.5690    -2.3550     0.0260 ca         1 E1J       0.084100
     19 CAU          1.7260    -4.5620    -0.0620 c3         1 E1J       0.122700
     20 CAV          1.3260    -1.7830     0.0190 ca         1 E1J      -0.149000
     21 CAY          2.0260     4.5460     0.2330 c5         1 E1J       0.241300
     22 CAZ          1.3830     5.9080     0.4770 c5         1 E1J      -0.098400
     23 CBA          0.0380     5.7900    -0.2320 c5         1 E1J      -0.098400
     24 CBB         -0.3840     4.3530     0.0570 c5         1 E1J       0.241300
     25 NAE         -6.0560    -1.1050    -0.0110 ns         1 E1J      -0.574900
     26 NAI         -1.2470    -0.3690     0.0340 nu         1 E1J      -0.882900
     27 NAX          0.8850     3.6520     0.1540 nh         1 E1J      -0.787300
     28 OAD         -7.7300     0.2670     0.6250 o          1 E1J      -0.605100
     29 OAQ          4.8910    -2.1730     0.0950 os         1 E1J      -0.281900
     30 OAT          2.8250    -3.6770    -0.0160 os         1 E1J      -0.291900
     31 H1           7.7540    -2.5240    -1.7260 hn         1 E1J       0.336800
     32 H2           8.0810    -3.8570    -0.8790 hn         1 E1J       0.336800
     33 H4           7.1160    -3.0830     1.0610 h1         1 E1J       0.038700
     34 H5           8.1460    -1.7830     0.4950 h1         1 E1J       0.038700
     35 H6         -10.0080    -0.9710     0.6620 ha         1 E1J       0.126500
     36 H7         -10.2170    -2.7500     0.2190 ha         1 E1J       0.126500
     37 H9          -7.8280    -2.9450    -0.2150 ha         1 E1J       0.123000
     38 H11         -5.1310     0.4910     0.9490 h1         1 E1J       0.056200
     39 H12         -5.1010     0.5850    -0.8040 h1         1 E1J       0.056200
     40 H13         -3.5490    -1.4220     0.9000 hc         1 E1J       0.047200
     41 H14         -3.5430    -1.3920    -0.8610 hc         1 E1J       0.047200
     42 H15         -2.6360     0.9400    -0.8170 h1         1 E1J       0.057700
     43 H16         -2.6320     0.9110     0.9340 h1         1 E1J       0.057700
     44 H17          4.4410     0.5040     0.1660 ha         1 E1J       0.153000
     45 H18          6.0850    -0.8180     1.1110 h1         1 E1J       0.037200
     46 H19          6.1860    -0.7390    -0.6530 h1         1 E1J       0.037200
     47 H20          2.1380    -5.5670    -0.0890 h1         1 E1J       0.036367
     48 H21          1.0870    -4.4660     0.8210 h1         1 E1J       0.036367
     49 H22          1.1130    -4.4080    -0.9550 h1         1 E1J       0.036367
     50 H23          0.4540    -2.4220    -0.0220 ha         1 E1J       0.122000
     51 H24          2.6010     4.5370    -0.6990 h1         1 E1J       0.052450
     52 H25          2.7070     4.2540     1.0330 h1         1 E1J       0.052450
     53 H26          1.2320     6.0640     1.5480 hc         1 E1J       0.051700
     54 H27          1.9980     6.7270     0.1060 hc         1 E1J       0.051700
     55 H28         -0.6990     6.5140     0.1140 hc         1 E1J       0.051700
     56 H29          0.1660     5.9340    -1.3080 hc         1 E1J       0.051700
     57 H30         -0.9490     4.2870     0.9940 h1         1 E1J       0.052450
     58 H31         -1.0130     3.9310    -0.7270 h1         1 E1J       0.052450
     59 H32         -5.8130    -2.0200    -0.3550 hn         1 E1J       0.311500
     60 H33         -1.2290    -1.3730     0.0320 hn         1 E1J       0.439800
@<TRIPOS>BOND
     1     1     2 ar  
     2     1     6 ar  
     3     1    15 ar  
     4     2     3 ar  
     5     2    20 ar  
     6     3     4 ar  
     7     3    26 1   
     8     4     8 ar  
     9     5     7 1   
    10     5    31 1   
    11     5    32 1   
    12     6     8 ar  
    13     7    17 1   
    14     7    33 1   
    15     7    34 1   
    16     8    27 1   
    17     9    10 2   
    18     9    35 1   
    19     9    36 1   
    20    10    11 1   
    21    10    37 1   
    22    11    25 1   
    23    11    28 2   
    24    12    13 1   
    25    12    25 1   
    26    12    38 1   
    27    12    39 1   
    28    13    14 1   
    29    13    40 1   
    30    13    41 1   
    31    14    26 1   
    32    14    42 1   
    33    14    43 1   
    34    15    16 ar  
    35    15    44 1   
    36    16    18 ar  
    37    16    29 1   
    38    17    29 1   
    39    17    45 1   
    40    17    46 1   
    41    18    20 ar  
    42    18    30 1   
    43    19    30 1   
    44    19    47 1   
    45    19    48 1   
    46    19    49 1   
    47    20    50 1   
    48    21    22 1   
    49    21    27 1   
    50    21    51 1   
    51    21    52 1   
    52    22    23 1   
    53    22    53 1   
    54    22    54 1   
    55    23    24 1   
    56    23    55 1   
    57    23    56 1   
    58    24    27 1   
    59    24    57 1   
    60    24    58 1   
    61    25    59 1   
    62    26    60 1   
@<TRIPOS>SUBSTRUCTURE
     1 E1J         1 TEMP              0 ****  ****    0 ROOT
