@<TRIPOS>MOLECULE
E1J
   60    62     1     0     0
SMALL
No Charge or Current Charge


@<TRIPOS>ATOM
      1 C4           2.3450     0.4960     0.1160 ca         1 E1J       0.122000
      2 C5           1.1680    -0.2860     0.1100 ca         1 E1J      -0.227000
      3 C6          -0.0630     0.4080     0.1150 ca         1 E1J       0.438900
      4 N1          -0.1220     1.7460     0.1250 nb         1 E1J      -0.341000
      5 N2           7.4610    -3.3010    -1.1200 n8         1 E1J      -0.981200
      6 N3           2.2720     1.8390     0.1260 nb         1 E1J      -0.299000
      7 C1           7.3450    -2.4960     0.1270 c3         1 E1J       0.149800
      8 C2           1.0480     2.4020     0.1300 ca         1 E1J       0.438900
      9 CAA         -9.6770    -2.2720     0.0880 c2         1 E1J      -0.230000
     10 CAB         -8.3210    -2.2550     0.0890 ce         1 E1J      -0.302200
     11 CAC         -7.4960    -1.0130     0.0990 c          1 E1J       0.599300
     12 CAF         -5.1330    -0.1770     0.1060 c3         1 E1J       0.108000
     13 CAG         -3.7060    -0.7530     0.1030 c3         1 E1J      -0.118400
     14 CAH         -2.6290     0.3470     0.1120 c3         1 E1J       0.238800
     15 CAO          3.5970    -0.1380     0.1120 ca         1 E1J      -0.214000
     16 CAP          3.6970    -1.5460     0.1020 ca         1 E1J       0.173100
     17 CAR          6.1750    -1.4730     0.1220 c3         1 E1J       0.161600
     18 CAS          2.5220    -2.3330     0.0960 ca         1 E1J       0.084100
     19 CAU          1.5130    -4.5980     0.0810 c3         1 E1J       0.145900
     20 CAV          1.2580    -1.6990     0.1000 ca         1 E1J      -0.131000
     21 CAY          2.1890     4.6920     0.2080 c5         1 E1J       0.241300
     22 CAZ          1.5540     6.0590     0.5690 c5         1 E1J      -0.098400
     23 CBA          0.2410     6.0110    -0.2530 c5         1 E1J      -0.098400
     24 CBB         -0.2780     4.5910     0.0860 c5         1 E1J       0.241300
     25 NAE         -6.1420    -1.2360     0.0970 ns         1 E1J      -0.507900
     26 NAI         -1.2870    -0.2550     0.1090 nu         1 E1J      -0.938100
     27 NAX          0.9900     3.8120     0.1400 nh         1 E1J      -0.787300
     28 OAD         -7.9760     0.1100     0.1090 o          1 E1J      -0.605100
     29 OAQ          4.9240    -2.1900     0.0980 os         1 E1J      -0.305100
     30 OAT          2.6480    -3.7140     0.0870 os         1 E1J      -0.315100
     31 H1           7.6610    -2.6740    -1.9090 hn         1 E1J       0.392000
     32 H2           8.3000    -3.8910    -1.0620 hn         1 E1J       0.392000
     33 H4           7.2210    -3.1790     0.9790 h1         1 E1J       0.038700
     34 H5           8.2870    -1.9490     0.2720 h1         1 E1J       0.038700
     35 H6         -10.2670    -1.3530     0.0960 ha         1 E1J       0.176500
     36 H7         -10.2400    -3.2070     0.0800 ha         1 E1J       0.176500
     37 H9          -7.7670    -3.1920     0.0810 ha         1 E1J       0.173000
     38 H11         -5.2790     0.4430     1.0020 h1         1 E1J       0.056200
     39 H12         -5.2770     0.4570    -0.7790 h1         1 E1J       0.056200
     40 H13         -3.5760    -1.3950     0.9830 hc         1 E1J       0.047200
     41 H14         -3.5750    -1.3810    -0.7870 hc         1 E1J       0.047200
     42 H15         -2.7580     0.9890    -0.7710 h1         1 E1J       0.057700
     43 H16         -2.7590     0.9750     1.0060 h1         1 E1J       0.057700
     44 H17          4.4850     0.4850     0.1170 ha         1 E1J       0.135000
     45 H18          6.2420    -0.8560     1.0270 h1         1 E1J       0.037200
     46 H19          6.2660    -0.8160    -0.7530 h1         1 E1J       0.037200
     47 H20          1.8470    -5.6430     0.0750 h1         1 E1J       0.036367
     48 H21          0.8940    -4.4440     0.9740 h1         1 E1J       0.036367
     49 H22          0.8960    -4.4330    -0.8110 h1         1 E1J       0.036367
     50 H23          0.3530    -2.2970     0.0950 ha         1 E1J       0.104000
     51 H24          2.7040     4.7330    -0.7630 h1         1 E1J       0.052450
     52 H25          2.9100     4.3730     0.9740 h1         1 E1J       0.052450
     53 H26          1.3500     6.1310     1.6440 hc         1 E1J       0.051700
     54 H27          2.1980     6.9030     0.2970 hc         1 E1J       0.051700
     55 H28         -0.4700     6.7940     0.0320 hc         1 E1J       0.051700
     56 H29          0.4370     6.1170    -1.3270 hc         1 E1J       0.051700
     57 H30         -0.7940     4.5730     1.0570 h1         1 E1J       0.052450
     58 H31         -0.9710     4.2260    -0.6860 h1         1 E1J       0.052450
     59 H32         -5.8350    -2.2010     0.0890 hn         1 E1J       0.311500
     60 H33         -1.2320    -1.2700     0.1010 hn         1 E1J       0.495000
@<TRIPOS>BOND
     1     1     2 ar  
     2     1     6 ar  
     3     1    15 ar  
     4     2     3 ar  
     5     2    20 ar  
     6     3     4 ar  
     7     3    26 1   
     8     4     8 ar  
     9     5     7 1   
    10     5    31 1   
    11     5    32 1   
    12     6     8 ar  
    13     7    17 1   
    14     7    33 1   
    15     7    34 1   
    16     8    27 1   
    17     9    10 2   
    18     9    35 1   
    19     9    36 1   
    20    10    11 1   
    21    10    37 1   
    22    11    25 1   
    23    11    28 2   
    24    12    13 1   
    25    12    25 1   
    26    12    38 1   
    27    12    39 1   
    28    13    14 1   
    29    13    40 1   
    30    13    41 1   
    31    14    26 1   
    32    14    42 1   
    33    14    43 1   
    34    15    16 ar  
    35    15    44 1   
    36    16    18 ar  
    37    16    29 1   
    38    17    29 1   
    39    17    45 1   
    40    17    46 1   
    41    18    20 ar  
    42    18    30 1   
    43    19    30 1   
    44    19    47 1   
    45    19    48 1   
    46    19    49 1   
    47    20    50 1   
    48    21    22 1   
    49    21    27 1   
    50    21    51 1   
    51    21    52 1   
    52    22    23 1   
    53    22    53 1   
    54    22    54 1   
    55    23    24 1   
    56    23    55 1   
    57    23    56 1   
    58    24    27 1   
    59    24    57 1   
    60    24    58 1   
    61    25    59 1   
    62    26    60 1   
@<TRIPOS>SUBSTRUCTURE
     1 E1J         1 TEMP              0 ****  ****    0 ROOT
