@<TRIPOS>MOLECULE
E1K
   33    35     1     0     0
SMALL
No Charge or Current Charge


@<TRIPOS>ATOM
      1 CAA         -4.5330     0.0280    -0.1850 c6         1 E1K      -0.076400
      2 CAB         -4.1730    -1.1480     0.7390 c6         1 E1K      -0.073400
      3 CAC         -2.8600    -1.7990     0.2590 c6         1 E1K      -0.063100
      4 CAD         -1.7300    -0.7820     0.0090 ca         1 E1K       0.129400
      5 CAF          0.6470    -0.3720     0.0530 ca         1 E1K       0.031000
      6 CAG          1.9550    -0.8500     0.3010 ca         1 E1K      -0.152000
      7 CAH          3.0350     0.0380     0.3820 ca         1 E1K       0.189000
      8 CAI          2.8280     1.4110     0.2170 ca         1 E1K      -0.099000
      9 CAJ          1.5320     1.9050    -0.0010 ca         1 E1K      -0.047000
     10 CAK          0.4210     1.0230    -0.0620 ca         1 E1K      -0.148000
     11 CAL         -0.9070     1.5010    -0.2000 ca         1 E1K       0.472000
     12 CAM         -1.9960     0.6030    -0.1270 ca         1 E1K      -0.240300
     13 CAN         -3.4520     1.1290    -0.1110 c6         1 E1K      -0.022100
     14 NAE         -0.4200    -1.2660    -0.1070 na         1 E1K      -0.032700
     15 NAO         -1.1630     2.8430    -0.3110 nv         1 E1K      -1.046000
     16 ClA          4.6560    -0.5780     0.6780 cl         1 E1K      -0.122000
     17 H1          -4.6290    -0.3310    -1.2200 hc         1 E1K       0.066700
     18 H2          -5.5120     0.4450     0.0920 hc         1 E1K       0.066700
     19 H3          -4.0630    -0.7930     1.7740 hc         1 E1K       0.068700
     20 H4          -4.9830    -1.8920     0.7450 hc         1 E1K       0.068700
     21 H5          -2.5370    -2.5460     0.9970 hc         1 E1K       0.082200
     22 H6          -3.0640    -2.3490    -0.6690 hc         1 E1K       0.082200
     23 H7           2.1480    -1.9110     0.4300 ha         1 E1K       0.155000
     24 H8           3.6710     2.0950     0.2710 ha         1 E1K       0.162000
     25 H9           1.4130     2.9800    -0.1070 ha         1 E1K       0.128000
     26 H10         -3.6170     1.8260    -0.9450 hc         1 E1K       0.057200
     27 H11         -3.6090     1.7070     0.8100 hc         1 E1K       0.057200
     28 H12          0.7580    -2.5940    -1.2880 h1         1 E1K       0.080700
     29 H13         -0.1230    -3.3590     0.0680 h1         1 E1K       0.080700
     30 H14         -0.9860    -2.8520    -1.4150 h1         1 E1K       0.080700
     31 H15         -0.4380     3.5060    -0.0600 hn         1 E1K       0.520500
     32 H16         -2.1170     3.1680    -0.1880 hn         1 E1K       0.520500
     33 CAP         -0.1790    -2.5970    -0.7180 c3         1 E1K       0.023900
@<TRIPOS>BOND
     1     1     2 1   
     2     1    13 1   
     3     1    17 1   
     4     1    18 1   
     5     2     3 1   
     6     2    19 1   
     7     2    20 1   
     8     3     4 1   
     9     3    21 1   
    10     3    22 1   
    11     4    12 ar  
    12     4    14 2   
    13     5     6 ar  
    14     5    10 ar  
    15     5    14 1   
    16     6     7 ar  
    17     6    23 1   
    18     7     8 ar  
    19     7    16 1   
    20     8     9 ar  
    21     8    24 1   
    22     9    10 ar  
    23     9    25 1   
    24    10    11 ar  
    25    11    12 ar  
    26    11    15 1   
    27    12    13 1   
    28    13    26 1   
    29    13    27 1   
    30    14    33 1   
    31    15    31 1   
    32    15    32 1   
    33    28    33 1   
    34    29    33 1   
    35    30    33 1   
@<TRIPOS>SUBSTRUCTURE
     1 E1K         1 TEMP              0 ****  ****    0 ROOT
