@<TRIPOS>MOLECULE
E1K
   33    35     1     0     0
SMALL
bcc


@<TRIPOS>ATOM
      1 CAA         -4.4660     0.0650    -0.3370 c6         1 E1K      -0.076400
      2 CAB         -4.1670    -1.1630     0.4970 c6         1 E1K      -0.073400
      3 CAC         -2.8360    -1.7660     0.0760 c6         1 E1K      -0.063100
      4 CAD         -1.7300    -0.7520    -0.0210 ca         1 E1K       0.129400
      5 CAF          0.6130    -0.3500    -0.0240 ca         1 E1K       0.081700
      6 CAG          1.9270    -0.8490     0.0180 ca         1 E1K      -0.170000
      7 CAH          2.9810     0.0250     0.0750 ca         1 E1K       0.097400
      8 CAI          2.7920     1.4100     0.0930 ca         1 E1K      -0.117000
      9 CAJ          1.5130     1.8940     0.0670 ca         1 E1K      -0.065000
     10 CAK          0.3980     1.0390     0.0120 ca         1 E1K      -0.148000
     11 CAL         -0.9490     1.5300    -0.0060 ca         1 E1K       0.333600
     12 CAM         -2.0090     0.6020    -0.0310 ca         1 E1K      -0.240300
     13 CAN         -3.4200     1.1300    -0.0590 c6         1 E1K      -0.022100
     14 NAE         -0.4570    -1.2120    -0.0800 na         1 E1K      -0.054100
     15 NAO         -1.2000     2.8300     0.0170 nv         1 E1K      -0.797200
     16 CLA          4.5860    -0.5980     0.1340 cl         1 E1K      -0.030400
     17 H1          -4.4590    -0.2010    -1.3980 hc         1 E1K       0.066700
     18 H2          -5.4560     0.4630    -0.1150 hc         1 E1K       0.066700
     19 H3          -4.1330    -0.8930     1.5570 hc         1 E1K       0.068700
     20 H4          -4.9420    -1.9210     0.3860 hc         1 E1K       0.068700
     21 H5          -2.5540    -2.5420     0.7900 hc         1 E1K       0.082200
     22 H6          -2.9520    -2.2600    -0.8940 hc         1 E1K       0.082200
     23 H7           2.1250    -1.9090     0.0290 ha         1 E1K       0.173000
     24 H8           3.6350     2.0840     0.1350 ha         1 E1K       0.180000
     25 H9           1.3880     2.9670     0.0900 ha         1 E1K       0.146000
     26 H10         -3.4960     1.9090    -0.8230 hc         1 E1K       0.057200
     27 H11         -3.6400     1.6140     0.8990 hc         1 E1K       0.057200
     28 H12          0.5610    -2.7910    -1.0040 h1         1 E1K       0.080700
     29 H13          0.1850    -3.0630     0.7130 h1         1 E1K       0.080700
     30 H14         -1.0670    -3.1750    -0.5270 h1         1 E1K       0.080700
     31 H15         -0.4780     3.5280     0.0400 hn         1 E1K       0.465300
     32 H16         -2.1420     3.1840     0.0250 hn         1 E1K       0.465300
     33 CAP         -0.1780    -2.6410    -0.2220 c3         1 E1K      -0.005400
@<TRIPOS>BOND
     1     1     2 1   
     2     1    13 1   
     3     1    17 1   
     4     1    18 1   
     5     2     3 1   
     6     2    19 1   
     7     2    20 1   
     8     3     4 1   
     9     3    21 1   
    10     3    22 1   
    11     4    12 ar  
    12     4    14 2   
    13     5     6 ar  
    14     5    10 ar  
    15     5    14 1   
    16     6     7 ar  
    17     6    23 1   
    18     7     8 ar  
    19     7    16 1   
    20     8     9 ar  
    21     8    24 1   
    22     9    10 ar  
    23     9    25 1   
    24    10    11 ar  
    25    11    12 ar  
    26    11    15 1   
    27    12    13 1   
    28    13    26 1   
    29    13    27 1   
    30    14    33 1   
    31    15    31 1   
    32    15    32 1   
    33    28    33 1   
    34    29    33 1   
    35    30    33 1   
@<TRIPOS>SUBSTRUCTURE
     1 E1K         1 TEMP              0 ****  ****    0 ROOT
