@<TRIPOS>MOLECULE
E1L
   43    46     1     0     0
SMALL
No Charge or Current Charge


@<TRIPOS>ATOM
      1 N           19.2760    18.1150     0.9460 ns         1 E1L      -0.378100
      2 C           23.4230    13.7930    -1.7910 c3         1 E1L       0.513000
      3 O           23.4920    14.7850    -0.7460 os         1 E1L      -0.398100
      4 C01         12.7180    23.5070    -0.6180 ca         1 E1L      -0.089000
      5 C02         12.4710    22.1650    -0.9960 ca         1 E1L      -0.136000
      6 C03         13.3290    21.1330    -0.5600 ca         1 E1L      -0.064000
      7 C04         14.4170    21.4850     0.2490 ca         1 E1L      -0.084800
      8 C05         14.6600    22.7800     0.6170 ca         1 E1L      -0.039200
      9 C06         13.8250    23.8250     0.1980 ca         1 E1L      -0.125000
     10 C07         15.4400    20.6700     0.8340 cc         1 E1L      -0.144400
     11 C08         16.2750    21.5380     1.5320 cd         1 E1L      -0.086300
     12 N01         15.7920    22.8620     1.4100 na         1 E1L      -0.210700
     13 C09         15.7000    19.1870     0.7540 c6         1 E1L      -0.018200
     14 C10         16.7110    18.7860     1.8570 c6         1 E1L       0.073000
     15 N02         17.8980    19.7030     1.8630 n          1 E1L      -0.349800
     16 C11         17.5140    21.0840     2.2870 c6         1 E1L       0.152200
     17 C12         19.1990    19.3660     1.5060 cs         1 E1L       0.486400
     18 S           20.5150    20.4000     1.6210 s          1 E1L      -0.639400
     19 C13         20.3520    17.2990     0.5200 ca         1 E1L       0.074600
     20 C14         20.1180    16.3660    -0.5060 ca         1 E1L      -0.103000
     21 C15         21.1470    15.5160    -0.9540 ca         1 E1L      -0.085500
     22 C16         22.4300    15.5850    -0.3640 ca         1 E1L       0.085100
     23 C17         22.6550    16.5040     0.6750 ca         1 E1L      -0.085500
     24 C18         21.6260    17.3520     1.1200 ca         1 E1L      -0.103000
     25 F01         24.6150    13.1740    -1.9390 f          1 E1L      -0.110000
     26 F02         22.5120    12.8310    -1.5200 f          1 E1L      -0.110000
     27 F           23.1120    14.3380    -2.9900 f          1 E1L      -0.110000
     28 H12         18.3750    17.6770     0.8170 hn         1 E1L       0.317500
     29 H01         12.0520    24.2960    -0.9590 ha         1 E1L       0.113000
     30 H02         11.6160    21.9280    -1.6250 ha         1 E1L       0.113000
     31 H03         13.1520    20.0980    -0.8420 ha         1 E1L       0.113000
     32 H04         14.0230    24.8540     0.4920 ha         1 E1L       0.116000
     33 H05         16.1980    23.7020     1.8120 hn         1 E1L       0.356000
     34 H06         14.7710    18.6130     0.8740 hc         1 E1L       0.055700
     35 H07         16.1090    18.9260    -0.2310 hc         1 E1L       0.055700
     36 H09         16.2090    18.8700     2.8330 h1         1 E1L       0.062700
     37 H08         16.9880    17.7290     1.7530 h1         1 E1L       0.062700
     38 H10         18.3270    21.7980     2.1010 h1         1 E1L       0.090700
     39 H11         17.3190    21.0890     3.3690 h1         1 E1L       0.090700
     40 H13         19.1360    16.3020    -0.9690 ha         1 E1L       0.132000
     41 H14         20.9240    14.8180    -1.7540 ha         1 E1L       0.138500
     42 H15         23.6350    16.5530     1.1430 ha         1 E1L       0.138500
     43 H           21.8240    18.0300     1.9440 ha         1 E1L       0.132000
@<TRIPOS>BOND
     1     1    17 1   
     2     1    19 1   
     3     1    28 1   
     4     2     3 1   
     5     2    25 1   
     6     2    26 1   
     7     2    27 1   
     8     3    22 1   
     9     4     5 ar  
    10     4     9 ar  
    11     4    29 1   
    12     5     6 ar  
    13     5    30 1   
    14     6     7 ar  
    15     6    31 1   
    16     7     8 ar  
    17     7    10 1   
    18     8     9 ar  
    19     8    12 1   
    20     9    32 1   
    21    10    11 2   
    22    10    13 1   
    23    11    12 1   
    24    11    16 1   
    25    12    33 1   
    26    13    14 1   
    27    13    34 1   
    28    13    35 1   
    29    14    15 1   
    30    14    36 1   
    31    14    37 1   
    32    15    16 1   
    33    15    17 1   
    34    16    38 1   
    35    16    39 1   
    36    17    18 2   
    37    19    20 ar  
    38    19    24 ar  
    39    20    21 ar  
    40    20    40 1   
    41    21    22 ar  
    42    21    41 1   
    43    22    23 ar  
    44    23    24 ar  
    45    23    42 1   
    46    24    43 1   
@<TRIPOS>SUBSTRUCTURE
     1 E1L         1 TEMP              0 ****  ****    0 ROOT
