@<TRIPOS>MOLECULE
E1L
   43    46     1     0     0
SMALL
bcc


@<TRIPOS>ATOM
      1 N           19.0510    17.9900     0.7020 ns         1 E1L      -0.445100
      2 C           23.4980    13.8920    -1.1270 c3         1 E1L       0.853700
      3 O           23.4750    15.2260    -1.2140 os         1 E1L      -0.374900
      4 C01         12.8630    23.5430    -0.4770 ca         1 E1L      -0.107000
      5 C02         12.5300    22.2330    -0.8590 ca         1 E1L      -0.154000
      6 C03         13.3190    21.1600    -0.4880 ca         1 E1L      -0.082000
      7 C04         14.4660    21.3960     0.2770 ca         1 E1L      -0.084800
      8 C05         14.7810    22.7230     0.6530 ca         1 E1L      -0.039200
      9 C06         13.9890    23.8050     0.2810 ca         1 E1L      -0.143000
     10 C07         15.4840    20.5590     0.8310 cc         1 E1L      -0.144400
     11 C08         16.3480    21.3830     1.4920 cd         1 E1L      -0.086300
     12 N01         15.9310    22.6800     1.3930 na         1 E1L      -0.160400
     13 C09         15.6640    19.0770     0.8100 c6         1 E1L      -0.018200
     14 C10         16.6680    18.7170     1.9010 c6         1 E1L       0.073000
     15 N02         17.8510    19.5740     1.8330 n          1 E1L      -0.416800
     16 C11         17.5790    20.9490     2.2150 c6         1 E1L       0.152200
     17 C12         19.0350    19.1990     1.3200 cs         1 E1L       0.620400
     18 S           20.4220    20.1430     1.4270 s          1 E1L      -0.639400
     19 C13         20.1940    17.3210     0.2320 ca         1 E1L       0.074600
     20 C14         20.2310    16.9050    -1.0930 ca         1 E1L      -0.121000
     21 C15         21.3120    16.1800    -1.5730 ca         1 E1L      -0.103500
     22 C16         22.3580    15.8910    -0.7180 ca         1 E1L       0.085100
     23 C17         22.3410    16.3020     0.6060 ca         1 E1L      -0.103500
     24 C18         21.2520    17.0100     1.0820 ca         1 E1L      -0.121000
     25 F01         24.6240    13.4710    -1.6810 f          1 E1L      -0.231300
     26 F02         23.4630    13.4540     0.1340 f          1 E1L      -0.231300
     27 F           22.4760    13.3150    -1.7620 f          1 E1L      -0.231300
     28 H12         18.1780    17.6200     0.3590 hn         1 E1L       0.317500
     29 H01         12.2250    24.3630    -0.7810 ha         1 E1L       0.131000
     30 H02         11.6400    22.0650    -1.4510 ha         1 E1L       0.131000
     31 H03         13.0520    20.1540    -0.7860 ha         1 E1L       0.131000
     32 H04         14.2440    24.8160     0.5750 ha         1 E1L       0.134000
     33 H05         16.4070    23.4780     1.7800 hn         1 E1L       0.305700
     34 H06         14.7240    18.5580     1.0100 hc         1 E1L       0.055700
     35 H07         16.0100    18.7270    -0.1690 hc         1 E1L       0.055700
     36 H09         16.2130    18.8860     2.8800 h1         1 E1L       0.062700
     37 H08         16.9500    17.6660     1.8790 h1         1 E1L       0.062700
     38 H10         18.4360    21.5690     1.9540 h1         1 E1L       0.090700
     39 H11         17.4490    21.0170     3.3010 h1         1 E1L       0.090700
     40 H13         19.4140    17.1490    -1.7600 ha         1 E1L       0.150000
     41 H14         21.3410    15.8710    -2.6090 ha         1 E1L       0.156500
     42 H15         23.1680    16.0750     1.2660 ha         1 E1L       0.156500
     43 H           21.2250    17.3170     2.1170 ha         1 E1L       0.150000
@<TRIPOS>BOND
     1     1    17 1   
     2     1    19 1   
     3     1    28 1   
     4     2     3 1   
     5     2    25 1   
     6     2    26 1   
     7     2    27 1   
     8     3    22 1   
     9     4     5 ar  
    10     4     9 ar  
    11     4    29 1   
    12     5     6 ar  
    13     5    30 1   
    14     6     7 ar  
    15     6    31 1   
    16     7     8 ar  
    17     7    10 1   
    18     8     9 ar  
    19     8    12 1   
    20     9    32 1   
    21    10    11 2   
    22    10    13 1   
    23    11    12 1   
    24    11    16 1   
    25    12    33 1   
    26    13    14 1   
    27    13    34 1   
    28    13    35 1   
    29    14    15 1   
    30    14    36 1   
    31    14    37 1   
    32    15    16 1   
    33    15    17 1   
    34    16    38 1   
    35    16    39 1   
    36    17    18 2   
    37    19    20 ar  
    38    19    24 ar  
    39    20    21 ar  
    40    20    40 1   
    41    21    22 ar  
    42    21    41 1   
    43    22    23 ar  
    44    23    24 ar  
    45    23    42 1   
    46    24    43 1   
@<TRIPOS>SUBSTRUCTURE
     1 E1L         1 TEMP              0 ****  ****    0 ROOT
