@<TRIPOS>MOLECULE
E1M
   49    52     1     0     0
SMALL
No Charge or Current Charge


@<TRIPOS>ATOM
      1 C4         -22.7120    -4.6370    22.1360 ca         1 E1M      -0.045300
      2 C14        -24.7880    -6.4420    20.6450 ca         1 E1M       0.122100
      3 C5         -22.1280    -4.1510    20.9320 ca         1 E1M       0.104000
      4 C6         -21.8780    -2.7790    20.7660 ca         1 E1M      -0.061000
      5 C7         -22.1780    -1.8680    21.7880 ca         1 E1M      -0.168000
      6 C8         -22.7170    -2.3220    22.9950 ca         1 E1M       0.313000
      7 C9         -22.9840    -3.7030    23.1750 ca         1 E1M       0.058000
      8 C1         -21.7410    -6.9220    22.7430 c3         1 E1M      -0.084100
      9 C15        -25.1350    -7.0660    19.4420 ca         1 E1M      -0.140000
     10 C16        -26.3730    -6.8030    18.8400 ca         1 E1M      -0.054000
     11 C17        -27.2880    -5.9070    19.4210 ca         1 E1M       0.218000
     12 C18        -26.9370    -5.2480    20.6340 ca         1 E1M      -0.025000
     13 C19        -25.6890    -5.5370    21.2450 ca         1 E1M      -0.180000
     14 C2         -23.0110    -6.1370    22.3640 c3         1 E1M       0.223600
     15 C20        -27.8560    -4.3240    21.2090 ca         1 E1M      -0.044300
     16 C21        -29.1170    -4.1630    20.5770 ca         1 E1M      -0.035800
     17 C22        -29.3630    -4.8700    19.3820 ca         1 E1M       0.344900
     18 C24        -30.1970    -3.2980    21.1510 ce         1 E1M      -0.240200
     19 C25        -31.2020    -2.6460    20.4880 cf         1 E1M      -0.208200
     20 C26        -32.2570    -1.8000    21.1250 c          1 E1M       0.686200
     21 C29        -27.5090    -3.5230    22.4480 cx         1 E1M      -0.079400
     22 C30        -26.3090    -2.5990    22.4980 cx         1 E1M      -0.125400
     23 C31        -27.6950    -2.0190    22.5100 cx         1 E1M      -0.125400
     24 N11        -22.9650    -1.4020    23.9890 nv         1 E1M      -1.073000
     25 N23        -28.4750    -5.7100    18.8090 nb         1 E1M      -0.674000
     26 O13        -23.5620    -6.7670    21.1910 os         1 E1M      -0.350100
     27 O27        -32.2560    -1.6650    22.3390 o          1 E1M      -0.723000
     28 O28        -33.0810    -1.2810    20.3890 o          1 E1M      -0.723000
     29 Cl10       -23.6320    -4.2430    24.7410 cl         1 E1M      -0.217000
     30 Cl12       -21.6360    -5.2010    19.5980 cl         1 E1M      -0.196000
     31 H1         -21.4360    -2.4210    19.8390 ha         1 E1M       0.129000
     32 H2         -21.9730    -0.8110    21.6420 ha         1 E1M       0.120000
     33 H3         -21.3060    -6.5180    23.6650 hc         1 E1M       0.048700
     34 H4         -21.9790    -7.9780    22.9130 hc         1 E1M       0.048700
     35 H5         -20.9850    -6.8600    21.9520 hc         1 E1M       0.048700
     36 H6         -24.4440    -7.7650    18.9780 ha         1 E1M       0.117000
     37 H7         -26.6310    -7.3060    17.9120 ha         1 E1M       0.122000
     38 H8         -25.4300    -5.0780    22.1910 ha         1 E1M       0.126000
     39 H9         -23.7250    -6.2680    23.1840 h1         1 E1M       0.064700
     40 H10        -30.3180    -4.7740    18.8660 h4         1 E1M       0.027100
     41 H11        -30.1620    -3.1930    22.2380 ha         1 E1M       0.201000
     42 H12        -31.2620    -2.7230    19.4050 ha         1 E1M       0.146000
     43 H13        -27.7300    -4.0750    23.3590 hc         1 E1M       0.078700
     44 H14        -25.7180    -2.4780    21.5930 hc         1 E1M       0.074200
     45 H15        -25.7420    -2.5530    23.4230 hc         1 E1M       0.074200
     46 H16        -28.0270    -1.5020    21.6130 hc         1 E1M       0.074200
     47 H17        -28.0600    -1.5920    23.4420 hc         1 E1M       0.074200
     48 H18        -23.2250    -1.7320    24.9170 hn         1 E1M       0.463000
     49 H19        -22.6120    -0.4510    23.9070 hn         1 E1M       0.463000
@<TRIPOS>BOND
     1     1     3 ar  
     2     1     7 ar  
     3     1    14 1   
     4     2     9 ar  
     5     2    13 ar  
     6     2    26 1   
     7     3     4 ar  
     8     3    30 1   
     9     4     5 ar  
    10     4    31 1   
    11     5     6 ar  
    12     5    32 1   
    13     6     7 ar  
    14     6    24 1   
    15     7    29 1   
    16     8    14 1   
    17     8    33 1   
    18     8    34 1   
    19     8    35 1   
    20     9    10 ar  
    21     9    36 1   
    22    10    11 ar  
    23    10    37 1   
    24    11    12 ar  
    25    11    25 ar  
    26    12    13 ar  
    27    12    15 ar  
    28    13    38 1   
    29    14    26 1   
    30    14    39 1   
    31    15    16 ar  
    32    15    21 1   
    33    16    17 ar  
    34    16    18 1   
    35    17    25 ar  
    36    17    40 1   
    37    18    19 2   
    38    18    41 1   
    39    19    20 1   
    40    19    42 1   
    41    20    27 1   
    42    20    28 1   
    43    21    22 1   
    44    21    23 1   
    45    21    43 1   
    46    22    23 1   
    47    22    44 1   
    48    22    45 1   
    49    23    46 1   
    50    23    47 1   
    51    24    48 1   
    52    24    49 1   
@<TRIPOS>SUBSTRUCTURE
     1 E1M         1 TEMP              0 ****  ****    0 ROOT
