@<TRIPOS>MOLECULE
E1M
   49    52     1     0     0
SMALL
abcg2


@<TRIPOS>ATOM
      1 C4         -22.7760    -4.6340    22.1080 ca         1 E1M      -0.045300
      2 C14        -24.8030    -6.4310    20.6770 ca         1 E1M       0.122100
      3 C5         -22.2520    -4.0780    20.9390 ca         1 E1M       0.104000
      4 C6         -22.0190    -2.7120    20.8290 ca         1 E1M      -0.061000
      5 C7         -22.2800    -1.8690    21.8890 ca         1 E1M      -0.168000
      6 C8         -22.7780    -2.3690    23.0980 ca         1 E1M       0.313000
      7 C9         -23.0150    -3.7500    23.1690 ca         1 E1M       0.058000
      8 C1         -21.7660    -6.8700    22.6660 c3         1 E1M      -0.084100
      9 C15        -25.1800    -7.1140    19.4950 ca         1 E1M      -0.140000
     10 C16        -26.3980    -6.8810    18.9260 ca         1 E1M      -0.054000
     11 C17        -27.3000    -5.9510    19.4960 ca         1 E1M       0.218000
     12 C18        -26.9160    -5.2440    20.6700 ca         1 E1M      -0.025000
     13 C19        -25.6500    -5.5110    21.2520 ca         1 E1M      -0.180000
     14 C2         -23.0380    -6.1210    22.3020 c3         1 E1M       0.223600
     15 C20        -27.8270    -4.2900    21.2140 ca         1 E1M      -0.044300
     16 C21        -29.0700    -4.1490    20.6070 ca         1 E1M      -0.035800
     17 C22        -29.3440    -4.9250    19.4480 ca         1 E1M       0.344900
     18 C24        -30.1070    -3.2650    21.1480 ce         1 E1M      -0.240200
     19 C25        -31.1090    -2.7100    20.4590 cf         1 E1M      -0.208200
     20 C26        -32.1550    -1.8150    21.0820 c          1 E1M       0.686200
     21 C29        -27.4320    -3.4780    22.4030 cx         1 E1M      -0.079400
     22 C30        -26.2450    -2.5470    22.3360 cx         1 E1M      -0.125400
     23 C31        -27.6330    -1.9870    22.4360 cx         1 E1M      -0.125400
     24 N11        -23.0830    -1.5170    24.1360 nv         1 E1M      -1.073000
     25 N23        -28.5120    -5.7740    18.9010 nb         1 E1M      -0.674000
     26 O13        -23.5750    -6.7710    21.1450 os         1 E1M      -0.350100
     27 O27        -32.0920    -1.5890    22.3190 o          1 E1M      -0.723000
     28 O28        -33.0200    -1.3570    20.2860 o          1 E1M      -0.723000
     29 CL10       -23.6450    -4.3550    24.6940 cl         1 E1M      -0.217000
     30 CL12       -21.8170    -5.0540    19.5460 cl         1 E1M      -0.196000
     31 H1         -21.6180    -2.3130    19.9070 ha         1 E1M       0.129000
     32 H2         -22.0930    -0.8070    21.7970 ha         1 E1M       0.120000
     33 H3         -21.3460    -6.4550    23.5830 hc         1 E1M       0.048700
     34 H4         -21.9920    -7.9240    22.8290 hc         1 E1M       0.048700
     35 H5         -21.0260    -6.7820    21.8710 hc         1 E1M       0.048700
     36 H6         -24.4820    -7.8210    19.0650 ha         1 E1M       0.117000
     37 H7         -26.7020    -7.4040    18.0280 ha         1 E1M       0.122000
     38 H8         -25.3710    -4.9830    22.1470 ha         1 E1M       0.126000
     39 H9         -23.7610    -6.2370    23.1080 h1         1 E1M       0.064700
     40 H10        -30.3170    -4.8320    18.9780 h4         1 E1M       0.027100
     41 H11        -30.0510    -3.0390    22.2050 ha         1 E1M       0.201000
     42 H12        -31.2070    -2.8640    19.3900 ha         1 E1M       0.146000
     43 H13        -27.5530    -3.9930    23.3520 hc         1 E1M       0.078700
     44 H14        -25.7320    -2.4620    21.3870 hc         1 E1M       0.074200
     45 H15        -25.6030    -2.4880    23.2020 hc         1 E1M       0.074200
     46 H16        -28.0480    -1.5220    21.5520 hc         1 E1M       0.074200
     47 H17        -27.9460    -1.5400    23.3690 hc         1 E1M       0.074200
     48 H18        -23.1090    -1.9150    25.0620 hn         1 E1M       0.463000
     49 H19        -22.6400    -0.6110    24.1010 hn         1 E1M       0.463000
@<TRIPOS>BOND
     1     1     3 ar  
     2     1     7 ar  
     3     1    14 1   
     4     2     9 ar  
     5     2    13 ar  
     6     2    26 1   
     7     3     4 ar  
     8     3    30 1   
     9     4     5 ar  
    10     4    31 1   
    11     5     6 ar  
    12     5    32 1   
    13     6     7 ar  
    14     6    24 1   
    15     7    29 1   
    16     8    14 1   
    17     8    33 1   
    18     8    34 1   
    19     8    35 1   
    20     9    10 ar  
    21     9    36 1   
    22    10    11 ar  
    23    10    37 1   
    24    11    12 ar  
    25    11    25 ar  
    26    12    13 ar  
    27    12    15 ar  
    28    13    38 1   
    29    14    26 1   
    30    14    39 1   
    31    15    16 ar  
    32    15    21 1   
    33    16    17 ar  
    34    16    18 1   
    35    17    25 ar  
    36    17    40 1   
    37    18    19 2   
    38    18    41 1   
    39    19    20 1   
    40    19    42 1   
    41    20    27 1   
    42    20    28 1   
    43    21    22 1   
    44    21    23 1   
    45    21    43 1   
    46    22    23 1   
    47    22    44 1   
    48    22    45 1   
    49    23    46 1   
    50    23    47 1   
    51    24    48 1   
    52    24    49 1   
@<TRIPOS>SUBSTRUCTURE
     1 E1M         1 TEMP              0 ****  ****    0 ROOT
