@<TRIPOS>MOLECULE
E1N
   44    47     1     0     0
SMALL
No Charge or Current Charge


@<TRIPOS>ATOM
      1 CAA        177.0670   -58.5130    54.8190 ca         1 E1N      -0.047000
      2 CAB        178.4790   -58.6120    54.8630 ca         1 E1N      -0.230900
      3 CAC        179.1620   -59.4200    53.9580 ca         1 E1N       0.325000
      4 CAD        178.4270   -60.1170    52.9730 ca         1 E1N      -0.149000
      5 CAE        177.0300   -60.0260    52.9270 ca         1 E1N       0.191000
      6 CAF        176.3460   -59.2310    53.8540 ca         1 E1N      -0.098000
      7 CAG        181.3330   -58.4840    54.5750 cc         1 E1N       0.245800
      8 CAH        180.7060   -57.6870    55.5460 cd         1 E1N      -0.313800
      9 CAI        179.2900   -57.8280    55.7670 cd         1 E1N       0.478200
     10 CAJ        181.5220   -56.6390    56.3290 c6         1 E1N      -0.006500
     11 CAK        183.0340   -56.9490    56.2950 c6         1 E1N      -0.073400
     12 CAL        183.4610   -57.0970    54.8230 c6         1 E1N      -0.015500
     13 CAM        182.8200   -58.3870    54.2670 c6         1 E1N      -0.060200
     14 CAR        181.2980   -55.2300    55.7080 c6         1 E1N      -0.048200
     15 CAS        183.0250   -55.8840    54.0040 c2         1 E1N      -0.239200
     16 CAT        182.0450   -55.0430    54.3840 c2         1 E1N      -0.090400
     17 CAU        181.6250   -53.8390    53.5580 c3         1 E1N      -0.046200
     18 CAV        180.3160   -54.0800    52.7790 c3         1 E1N      -0.085100
     19 NAO        178.7310   -57.1160    56.7900 nv         1 E1N      -0.567700
     20 NAQ        180.5580   -59.5360    54.0450 na         1 E1N      -0.591200
     21 ClA        176.1340   -60.9070    51.6970 cl         1 E1N      -0.131000
     22 H1         176.5210   -57.8700    55.5060 ha         1 E1N       0.128000
     23 H2         178.9250   -60.7280    52.2290 ha         1 E1N       0.154000
     24 H3         175.2620   -59.1570    53.8110 ha         1 E1N       0.161000
     25 H4         181.2220   -56.6150    57.3860 hc         1 E1N       0.054700
     26 H5         183.2530   -57.8660    56.8590 hc         1 E1N       0.067700
     27 H6         183.6010   -56.1410    56.7790 hc         1 E1N       0.067700
     28 H7         184.5560   -57.1860    54.7740 hc         1 E1N       0.084700
     29 H8         183.3450   -59.2460    54.7050 hc         1 E1N       0.081700
     30 H9         182.9930   -58.4450    53.1840 hc         1 E1N       0.081700
     31 H10        182.1020   -61.0200    54.0780 h1         1 E1N       0.080367
     32 H11        180.5040   -61.6460    53.6640 h1         1 E1N       0.080367
     33 H12        181.4200   -60.6840    52.4630 h1         1 E1N       0.080367
     34 H13        181.6350   -54.4580    56.4140 hc         1 E1N       0.059700
     35 H14        180.2240   -55.0560    55.5650 hc         1 E1N       0.059700
     36 H15        183.5540   -55.7300    53.0610 ha         1 E1N       0.189000
     37 H16        182.4090   -53.5910    52.8320 hc         1 E1N       0.058700
     38 H17        181.5140   -52.9550    54.1980 hc         1 E1N       0.058700
     39 H18        180.0750   -53.2080    52.1590 hc         1 E1N       0.035700
     40 H19        180.4130   -54.9530    52.1230 hc         1 E1N       0.035700
     41 H20        179.4760   -54.2530    53.4620 hc         1 E1N       0.035700
     42 H21        179.3360   -56.6550    57.4540 hn         1 E1N       0.360000
     43 H22        177.7800   -57.3110    57.0700 hn         1 E1N       0.360000
     44 CAN        181.1800   -60.7910    53.5290 c3         1 E1N       0.178100
@<TRIPOS>BOND
     1     1     2 ar  
     2     1     6 ar  
     3     1    22 1   
     4     2     3 ar  
     5     2     9 1   
     6     3     4 ar  
     7     3    20 1   
     8     4     5 ar  
     9     4    23 1   
    10     5     6 ar  
    11     5    21 1   
    12     6    24 1   
    13     7     8 2   
    14     7    13 1   
    15     7    20 1   
    16     8     9 1   
    17     8    10 1   
    18     9    19 2   
    19    10    11 1   
    20    10    14 1   
    21    10    25 1   
    22    11    12 1   
    23    11    26 1   
    24    11    27 1   
    25    12    13 1   
    26    12    15 1   
    27    12    28 1   
    28    13    29 1   
    29    13    30 1   
    30    14    16 1   
    31    14    34 1   
    32    14    35 1   
    33    15    16 2   
    34    15    36 1   
    35    16    17 1   
    36    17    18 1   
    37    17    37 1   
    38    17    38 1   
    39    18    39 1   
    40    18    40 1   
    41    18    41 1   
    42    19    42 1   
    43    19    43 1   
    44    20    44 1   
    45    31    44 1   
    46    32    44 1   
    47    33    44 1   
@<TRIPOS>SUBSTRUCTURE
     1 E1N         1 TEMP              0 ****  ****    0 ROOT
