@<TRIPOS>MOLECULE
E1N
   44    47     1     0     0
SMALL
abcg2


@<TRIPOS>ATOM
      1 CAA        177.0820   -58.5760    54.8870 ca         1 E1N      -0.047000
      2 CAB        178.4910   -58.5570    54.8690 ca         1 E1N      -0.230900
      3 CAC        179.1680   -59.4080    53.9700 ca         1 E1N       0.325000
      4 CAD        178.4280   -60.2490    53.1170 ca         1 E1N      -0.149000
      5 CAE        177.0560   -60.2310    53.1750 ca         1 E1N       0.191000
      6 CAF        176.3610   -59.3980    54.0590 ca         1 E1N      -0.098000
      7 CAG        181.2690   -58.4890    54.6300 cc         1 E1N       0.245800
      8 CAH        180.6610   -57.6400    55.5440 cd         1 E1N      -0.313800
      9 CAI        179.2630   -57.6940    55.7210 cd         1 E1N       0.478200
     10 CAJ        181.4650   -56.6300    56.3430 c6         1 E1N      -0.006500
     11 CAK        182.9430   -57.0010    56.3920 c6         1 E1N      -0.073400
     12 CAL        183.4120   -57.1750    54.9540 c6         1 E1N      -0.015500
     13 CAM        182.7550   -58.4380    54.3830 c6         1 E1N      -0.060200
     14 CAR        181.3260   -55.2250    55.7250 c6         1 E1N      -0.048200
     15 CAS        183.0590   -55.9690    54.1180 c2         1 E1N      -0.239200
     16 CAT        182.1140   -55.0880    54.4460 c2         1 E1N      -0.090400
     17 CAU        181.7440   -53.9360    53.5500 c3         1 E1N      -0.046200
     18 CAV        180.4420   -54.1880    52.7760 c3         1 E1N      -0.085100
     19 NAO        178.6550   -56.9400    56.6390 nv         1 E1N      -0.567700
     20 NAQ        180.5490   -59.3980    53.9190 na         1 E1N      -0.591200
     21 CLA        176.1490   -61.2630    52.1050 cl         1 E1N      -0.131000
     22 H1         176.5340   -57.9210    55.5480 ha         1 E1N       0.128000
     23 H2         178.9160   -60.8900    52.4030 ha         1 E1N       0.154000
     24 H3         175.2810   -59.3980    54.0770 ha         1 E1N       0.161000
     25 H4         181.0820   -56.6110    57.3650 hc         1 E1N       0.054700
     26 H5         183.0930   -57.9240    56.9560 hc         1 E1N       0.067700
     27 H6         183.5010   -56.2070    56.8920 hc         1 E1N       0.067700
     28 H7         184.4920   -57.3300    54.9210 hc         1 E1N       0.084700
     29 H8         183.2180   -59.3240    54.8300 hc         1 E1N       0.081700
     30 H9         182.9400   -58.4920    53.3090 hc         1 E1N       0.081700
     31 H10        182.2580   -60.4810    53.3440 h1         1 E1N       0.080367
     32 H11        180.7520   -61.3720    53.2490 h1         1 E1N       0.080367
     33 H12        181.1280   -60.1380    52.0220 h1         1 E1N       0.080367
     34 H13        181.6710   -54.4760    56.4460 hc         1 E1N       0.059700
     35 H14        180.2760   -54.9940    55.5330 hc         1 E1N       0.059700
     36 H15        183.5920   -55.8550    53.1790 ha         1 E1N       0.189000
     37 H16        182.5540   -53.7510    52.8400 hc         1 E1N       0.058700
     38 H17        181.6310   -53.0290    54.1530 hc         1 E1N       0.058700
     39 H18        180.1800   -53.3220    52.1660 hc         1 E1N       0.035700
     40 H19        180.5510   -55.0510    52.1160 hc         1 E1N       0.035700
     41 H20        179.6080   -54.3860    53.4520 hc         1 E1N       0.035700
     42 H21        179.1780   -56.3380    57.2520 hn         1 E1N       0.360000
     43 H22        177.6680   -57.0010    56.8140 hn         1 E1N       0.360000
     44 CAN        181.2150   -60.4040    53.0750 c3         1 E1N       0.178100
@<TRIPOS>BOND
     1     1     2 ar  
     2     1     6 ar  
     3     1    22 1   
     4     2     3 ar  
     5     2     9 1   
     6     3     4 ar  
     7     3    20 1   
     8     4     5 ar  
     9     4    23 1   
    10     5     6 ar  
    11     5    21 1   
    12     6    24 1   
    13     7     8 2   
    14     7    13 1   
    15     7    20 1   
    16     8     9 1   
    17     8    10 1   
    18     9    19 2   
    19    10    11 1   
    20    10    14 1   
    21    10    25 1   
    22    11    12 1   
    23    11    26 1   
    24    11    27 1   
    25    12    13 1   
    26    12    15 1   
    27    12    28 1   
    28    13    29 1   
    29    13    30 1   
    30    14    16 1   
    31    14    34 1   
    32    14    35 1   
    33    15    16 2   
    34    15    36 1   
    35    16    17 1   
    36    17    18 1   
    37    17    37 1   
    38    17    38 1   
    39    18    39 1   
    40    18    40 1   
    41    18    41 1   
    42    19    42 1   
    43    19    43 1   
    44    20    44 1   
    45    31    44 1   
    46    32    44 1   
    47    33    44 1   
@<TRIPOS>SUBSTRUCTURE
     1 E1N         1 TEMP              0 ****  ****    0 ROOT
