@<TRIPOS>MOLECULE
E1P
   28    28     1     0     0
SMALL
No Charge or Current Charge


@<TRIPOS>ATOM
      1 C3          -1.0890    -0.5300    -1.0960 c6         1 E1P       0.098500
      2 C2          -1.1400     0.9690    -1.4740 c6         1 E1P      -0.098400
      3 C1          -0.5040     1.2060    -2.8670 c6         1 E1P      -0.074400
      4 C5           0.9250     0.6080    -2.9340 c6         1 E1P      -0.098400
      5 C4           0.9260    -0.8800    -2.5050 c6         1 E1P       0.098500
      6 N1           0.3090    -1.0340    -1.1620 n          1 E1P      -0.388800
      7 C6           1.0420    -1.4710    -0.0250 c          1 E1P       0.566100
      8 O2           2.2040    -1.8630    -0.1440 o          1 E1P      -0.570100
      9 C7           0.3420    -1.4460     1.4150 c          1 E1P       0.519100
     10 O3           0.0700    -2.4680     2.0410 o          1 E1P      -0.461000
     11 O4           0.0820    -0.1720     1.8780 os         1 E1P      -0.440100
     12 C8          -0.5620    -0.0320     3.1550 c3         1 E1P       0.164600
     13 C9          -0.7550     1.4710     3.4060 c3         1 E1P      -0.098100
     14 H3C1        -1.7050    -1.1040    -1.8030 h1         1 E1P       0.059200
     15 H3C2        -1.5300    -0.6770    -0.1010 h1         1 E1P       0.059200
     16 H2C1        -2.1800     1.3210    -1.4690 hc         1 E1P       0.053200
     17 H2C2        -0.6050     1.5560    -0.7150 hc         1 E1P       0.053200
     18 H1C1        -1.1320     0.7460    -3.6420 hc         1 E1P       0.043700
     19 H1C2        -0.4720     2.2820    -3.0880 hc         1 E1P       0.043700
     20 H5C1         1.3270     0.7040    -3.9510 hc         1 E1P       0.053200
     21 H5C2         1.5950     1.1770    -2.2750 hc         1 E1P       0.053200
     22 H4C1         1.9560    -1.2630    -2.5150 h1         1 E1P       0.059200
     23 H4C2         0.3530    -1.4730    -3.2330 h1         1 E1P       0.059200
     24 H8C1         0.0540    -0.4630     3.9550 h1         1 E1P       0.051200
     25 H8C2        -1.5400    -0.5310     3.1580 h1         1 E1P       0.051200
     26 H9C1        -1.2480     1.6350     4.3710 hc         1 E1P       0.048367
     27 H9C2         0.2130     1.9870     3.4220 hc         1 E1P       0.048367
     28 H9C3        -1.3770     1.9170     2.6210 hc         1 E1P       0.048367
@<TRIPOS>BOND
     1     1     2 1   
     2     1     6 1   
     3     1    14 1   
     4     1    15 1   
     5     2     3 1   
     6     2    16 1   
     7     2    17 1   
     8     3     4 1   
     9     3    18 1   
    10     3    19 1   
    11     4     5 1   
    12     4    20 1   
    13     4    21 1   
    14     5     6 1   
    15     5    22 1   
    16     5    23 1   
    17     6     7 1   
    18     7     8 2   
    19     7     9 1   
    20     9    10 2   
    21     9    11 1   
    22    11    12 1   
    23    12    13 1   
    24    12    24 1   
    25    12    25 1   
    26    13    26 1   
    27    13    27 1   
    28    13    28 1   
@<TRIPOS>SUBSTRUCTURE
     1 E1P         1 TEMP              0 ****  ****    0 ROOT
