@<TRIPOS>MOLECULE
E1P
   28    28     1     0     0
SMALL
abcg2


@<TRIPOS>ATOM
      1 C3          -1.1120    -0.5910    -1.1670 c6         1 E1P       0.098500
      2 C2          -1.2520     0.8660    -1.5860 c6         1 E1P      -0.098400
      3 C1          -0.5390     1.1130    -2.9120 c6         1 E1P      -0.074400
      4 C5           0.9090     0.6340    -2.8560 c6         1 E1P      -0.098400
      5 C4           0.9890    -0.8160    -2.3940 c6         1 E1P       0.098500
      6 N1           0.2920    -0.9730    -1.1250 n          1 E1P      -0.388800
      7 C6           0.9540    -1.2830    -0.0100 c          1 E1P       0.566100
      8 O2           2.1430    -1.5530     0.0720 o          1 E1P      -0.570100
      9 C7           0.1520    -1.3320     1.2840 c          1 E1P       0.519100
     10 O3          -0.2690    -2.3540     1.7570 o          1 E1P      -0.461000
     11 O4           0.0830    -0.1380     1.8300 os         1 E1P      -0.440100
     12 C8          -0.5650    -0.0090     3.1150 c3         1 E1P       0.164600
     13 C9          -0.4990     1.4430     3.5150 c3         1 E1P      -0.098100
     14 H3C1        -1.6140    -1.2400    -1.8910 h1         1 E1P       0.059200
     15 H3C2        -1.5970    -0.7730    -0.2090 h1         1 E1P       0.059200
     16 H2C1        -2.3130     1.1110    -1.6690 hc         1 E1P       0.053200
     17 H2C2        -0.8330     1.5040    -0.8030 hc         1 E1P       0.053200
     18 H1C1        -1.0660     0.5780    -3.7080 hc         1 E1P       0.043700
     19 H1C2        -0.5770     2.1730    -3.1700 hc         1 E1P       0.043700
     20 H5C1         1.3790     0.7220    -3.8370 hc         1 E1P       0.053200
     21 H5C2         1.4840     1.2600    -2.1680 hc         1 E1P       0.053200
     22 H4C1         2.0200    -1.1390    -2.2800 h1         1 E1P       0.059200
     23 H4C2         0.5140    -1.4740    -3.1280 h1         1 E1P       0.059200
     24 H8C1        -0.0540    -0.6440     3.8410 h1         1 E1P       0.051200
     25 H8C2        -1.5990    -0.3480     3.0300 h1         1 E1P       0.051200
     26 H9C1        -0.9960     1.5690     4.4760 hc         1 E1P       0.048367
     27 H9C2         0.5300     1.7840     3.6230 hc         1 E1P       0.048367
     28 H9C3        -1.0050     2.0820     2.7910 hc         1 E1P       0.048367
@<TRIPOS>BOND
     1     1     2 1   
     2     1     6 1   
     3     1    14 1   
     4     1    15 1   
     5     2     3 1   
     6     2    16 1   
     7     2    17 1   
     8     3     4 1   
     9     3    18 1   
    10     3    19 1   
    11     4     5 1   
    12     4    20 1   
    13     4    21 1   
    14     5     6 1   
    15     5    22 1   
    16     5    23 1   
    17     6     7 1   
    18     7     8 2   
    19     7     9 1   
    20     9    10 2   
    21     9    11 1   
    22    11    12 1   
    23    12    13 1   
    24    12    24 1   
    25    12    25 1   
    26    13    26 1   
    27    13    27 1   
    28    13    28 1   
@<TRIPOS>SUBSTRUCTURE
     1 E1P         1 TEMP              0 ****  ****    0 ROOT
