@<TRIPOS>MOLECULE
E1S
   47    48     1     0     0
SMALL
bcc


@<TRIPOS>ATOM
      1 C1          -1.0340    -0.8410     0.2640 c3         1 E1S      -0.158400
      2 N1          -3.3760    -0.3090     0.0350 ns         1 E1S      -0.536900
      3 C2          -2.4840    -1.1780     0.5410 c          1 E1S       0.666100
      4 O2          -2.8280    -2.1710     1.1660 o          1 E1S      -0.631100
      5 C3          -5.5590     0.6160    -0.5280 c3         1 E1S      -0.064400
      6 C4          -5.4250     1.8820     0.3020 c3         1 E1S      -0.212400
      7 C5          -6.2240     3.0910    -0.2200 c          1 E1S       0.928600
      8 O6          -6.0890     4.1500     0.4270 o          1 E1S      -0.840800
      9 O7          -6.9340     2.9250    -1.2300 o          1 E1S      -0.840800
     10 C13         -5.1150    -1.8320    -0.7400 c          1 E1S       0.666100
     11 C14         -0.0670    -1.4750     1.2600 c3         1 E1S      -0.022100
     12 C15          1.3570    -1.1520     0.9060 ca         1 E1S      -0.067300
     13 C16          1.9730     0.0000     1.3850 ca         1 E1S      -0.125000
     14 C17          3.2740     0.3210     1.0300 ca         1 E1S      -0.116500
     15 C18          2.0870    -1.9720     0.0480 ca         1 E1S      -0.125000
     16 C19          5.3770    -0.1840    -0.2200 cc         1 E1S       0.009900
     17 C20          6.3610    -1.0340    -0.6430 cd         1 E1S      -0.152000
     18 C21          7.5800    -0.3740    -0.9470 cd         1 E1S      -0.154000
     19 S23          5.9660     1.4440    -0.2030 ss         1 E1S      -0.100800
     20 C27          7.5310     0.9750    -0.7570 cc         1 E1S      -0.062400
     21 C30          4.0040    -0.5000     0.1670 ca         1 E1S      -0.021000
     22 C31          3.3820    -1.6520    -0.3210 ca         1 E1S      -0.116500
     23 C35         -4.7910    -0.5710     0.0620 c3         1 E1S       0.025700
     24 H1          -0.8040    -1.1910    -0.7480 hc         1 E1S       0.062700
     25 H1A         -0.9000     0.2440     0.2440 hc         1 E1S       0.062700
     26 HN1         -3.0420     0.4450    -0.5440 hn         1 E1S       0.327500
     27 H3          -6.6120     0.3380    -0.6000 hc         1 E1S       0.058200
     28 H3A         -5.2180     0.7860    -1.5530 hc         1 E1S       0.058200
     29 HN3         -6.5190    -3.3200    -0.7930 hn         1 E1S       0.306500
     30 HN3A        -6.6540    -2.2610     0.5530 hn         1 E1S       0.306500
     31 H4          -5.7450     1.6780     1.3300 hc         1 E1S       0.020200
     32 H4A         -4.3750     2.1820     0.3880 hc         1 E1S       0.020200
     33 H14         -0.2890    -1.1150     2.2670 hc         1 E1S       0.061700
     34 H14A        -0.2110    -2.5570     1.2720 hc         1 E1S       0.061700
     35 H16          1.4330     0.6560     2.0590 ha         1 E1S       0.135000
     36 H17          3.7250     1.2130     1.4470 ha         1 E1S       0.130000
     37 H18          1.6330    -2.8740    -0.3460 ha         1 E1S       0.135000
     38 H20          6.2280    -2.1040    -0.7190 ha         1 E1S       0.151000
     39 H21          8.4700    -0.8830    -1.2910 ha         1 E1S       0.145000
     40 H24          8.3000     2.7840    -1.6290 hc         1 E1S       0.043367
     41 H24A         8.9140     2.4440    -0.0170 hc         1 E1S       0.043367
     42 H24B         9.4860     1.5030    -1.3930 hc         1 E1S       0.043367
     43 H31          3.9110    -2.3010    -1.0080 ha         1 E1S       0.130000
     44 H35         -5.1120    -0.7120     1.1000 h1         1 E1S       0.064700
     45 C24          8.6110     1.9820    -0.9580 c3         1 E1S      -0.017800
     46 N3          -6.1760    -2.5160    -0.2930 nt         1 E1S      -0.672000
     47 O5          -4.4810    -2.1400    -1.7370 o          1 E1S      -0.625100
@<TRIPOS>BOND
     1     1     3 1   
     2     1    11 1   
     3     1    24 1   
     4     1    25 1   
     5     2     3 1   
     6     2    23 1   
     7     2    26 1   
     8     3     4 2   
     9     5     6 1   
    10     5    23 1   
    11     5    27 1   
    12     5    28 1   
    13     6     7 1   
    14     6    31 1   
    15     6    32 1   
    16     7     8 1   
    17     7     9 1   
    18    10    23 1   
    19    10    46 1   
    20    10    47 2   
    21    11    12 1   
    22    11    33 1   
    23    11    34 1   
    24    12    13 ar  
    25    12    15 ar  
    26    13    14 ar  
    27    13    35 1   
    28    14    21 ar  
    29    14    36 1   
    30    15    22 ar  
    31    15    37 1   
    32    16    17 2   
    33    16    19 1   
    34    16    21 1   
    35    17    18 1   
    36    17    38 1   
    37    18    20 2   
    38    18    39 1   
    39    19    20 1   
    40    20    45 1   
    41    21    22 ar  
    42    22    43 1   
    43    23    44 1   
    44    29    46 1   
    45    30    46 1   
    46    40    45 1   
    47    41    45 1   
    48    42    45 1   
@<TRIPOS>SUBSTRUCTURE
     1 E1S         1 TEMP              0 ****  ****    0 ROOT
