@<TRIPOS>MOLECULE
E1S
   47    48     1     0     0
SMALL
No Charge or Current Charge


@<TRIPOS>ATOM
      1 C1          -1.0330    -1.4600    -0.2080 c3         1 E1S      -0.158400
      2 N1          -3.3610    -0.9100    -0.7500 ns         1 E1S      -0.469900
      3 C2          -2.5270    -1.6440     0.0650 c          1 E1S       0.599100
      4 O2          -2.9470    -2.4120     0.9190 o          1 E1S      -0.631100
      5 C3          -5.3550     0.3200     0.1690 c3         1 E1S      -0.064400
      6 C4          -4.8200     0.3820     1.6260 c3         1 E1S      -0.212400
      7 C5          -5.4890     1.5390     2.3870 c          1 E1S       0.718000
      8 O6          -4.9670     2.6420     2.3330 o          1 E1S      -0.735500
      9 O7          -6.5430     1.3160     2.9640 o          1 E1S      -0.735500
     10 C13         -5.4610    -0.9150    -2.0980 c          1 E1S       0.599100
     11 C14         -0.3620    -0.6170     0.8990 c3         1 E1S      -0.022100
     12 C15          1.1240    -0.4120     0.6380 ca         1 E1S      -0.067300
     13 C16          1.5730     0.7120    -0.0790 ca         1 E1S      -0.107000
     14 C17          2.9440     0.8970    -0.3250 ca         1 E1S      -0.098500
     15 C18          2.0640    -1.3520     1.1000 ca         1 E1S      -0.107000
     16 C19          5.3180     0.1700    -0.1280 cc         1 E1S      -0.135000
     17 C20          6.2980    -0.2880     0.7190 cd         1 E1S      -0.134000
     18 C21          7.6070     0.0440     0.2730 cd         1 E1S      -0.136000
     19 S23          5.9920     1.0520    -1.4950 ss         1 E1S       0.189000
     20 C27          7.6290     0.7550    -0.9030 cc         1 E1S      -0.207300
     21 C30          3.8920    -0.0360     0.1430 ca         1 E1S      -0.021000
     22 C31          3.4350    -1.1660     0.8540 ca         1 E1S      -0.098500
     23 C35         -4.8400    -0.8880    -0.6680 c3         1 E1S       0.025700
     24 H1          -0.5540    -2.4460    -0.2310 hc         1 E1S       0.062700
     25 H1A         -0.8830    -0.9510    -1.1680 hc         1 E1S       0.062700
     26 HN1         -2.9150    -0.3440    -1.4630 hn         1 E1S       0.327500
     27 H3          -6.4510     0.2860     0.2070 hc         1 E1S       0.058200
     28 H3A         -5.0920     1.2510    -0.3490 hc         1 E1S       0.058200
     29 HN3         -7.2510    -1.0310    -3.0810 hn         1 E1S       0.306500
     30 HN3A        -7.3620    -1.0770    -1.3320 hn         1 E1S       0.306500
     31 H4          -5.0840    -0.5790     2.0840 hc         1 E1S       0.020200
     32 H4A         -3.7400     0.5560     1.5510 hc         1 E1S       0.020200
     33 H14         -0.8700     0.3530     0.9720 hc         1 E1S       0.061700
     34 H14A        -0.5080    -1.1100     1.8690 hc         1 E1S       0.061700
     35 H16          0.8580     1.4450    -0.4470 ha         1 E1S       0.117000
     36 H17          3.2670     1.7770    -0.8760 ha         1 E1S       0.112000
     37 H18          1.7310    -2.2320     1.6460 ha         1 E1S       0.117000
     38 H20          6.1070    -0.8330     1.6380 ha         1 E1S       0.133000
     39 H21          8.5050    -0.2370     0.8150 ha         1 E1S       0.127000
     40 H24          8.8250     0.9110    -2.6870 hc         1 E1S       0.043367
     41 H24A         8.8410     2.3630    -1.6680 hc         1 E1S       0.043367
     42 H24B         9.7620     0.9270    -1.1820 hc         1 E1S       0.043367
     43 H31          4.1380    -1.9160     1.2090 ha         1 E1S       0.112000
     44 H35         -5.1770    -1.8100    -0.1760 h1         1 E1S       0.064700
     45 C24          8.8300     1.2660    -1.6500 c3         1 E1S      -0.017800
     46 N3          -6.8090    -1.0130    -2.1740 nt         1 E1S      -0.605000
     47 O5          -4.8060    -0.8440    -3.1280 o          1 E1S      -0.625100
@<TRIPOS>BOND
     1     1     3 1   
     2     1    11 1   
     3     1    24 1   
     4     1    25 1   
     5     2     3 1   
     6     2    23 1   
     7     2    26 1   
     8     3     4 2   
     9     5     6 1   
    10     5    23 1   
    11     5    27 1   
    12     5    28 1   
    13     6     7 1   
    14     6    31 1   
    15     6    32 1   
    16     7     8 1   
    17     7     9 1   
    18    10    23 1   
    19    10    46 1   
    20    10    47 2   
    21    11    12 1   
    22    11    33 1   
    23    11    34 1   
    24    12    13 ar  
    25    12    15 ar  
    26    13    14 ar  
    27    13    35 1   
    28    14    21 ar  
    29    14    36 1   
    30    15    22 ar  
    31    15    37 1   
    32    16    17 2   
    33    16    19 1   
    34    16    21 1   
    35    17    18 1   
    36    17    38 1   
    37    18    20 2   
    38    18    39 1   
    39    19    20 1   
    40    20    45 1   
    41    21    22 ar  
    42    22    43 1   
    43    23    44 1   
    44    29    46 1   
    45    30    46 1   
    46    40    45 1   
    47    41    45 1   
    48    42    45 1   
@<TRIPOS>SUBSTRUCTURE
     1 E1S         1 TEMP              0 ****  ****    0 ROOT
