@<TRIPOS>MOLECULE
E1T
   18    19     1     0     0
SMALL
bcc


@<TRIPOS>ATOM
      1 C1          -1.3640     0.8470    -0.0170 ca         1 E1T      -0.209300
      2 C2          -0.9210    -0.4980    -0.0250 ca         1 E1T       0.634300
      3 C3          -0.3770     1.8570     0.0040 ca         1 E1T      -0.132000
      4 C4           1.2870     0.1220    -0.0040 ca         1 E1T       0.370800
      5 C5          -2.7500     1.0940    -0.0310 ca         1 E1T      -0.074000
      6 C6           0.9380     1.4980     0.0050 ca         1 E1T      -0.199300
      7 C7          -3.6120     0.0330    -0.0500 ca         1 E1T      -0.288300
      8 C8          -3.0710    -1.2680    -0.0520 ca         1 E1T       0.399200
      9 C9           2.7800    -0.2790     0.0010 c          1 E1T       0.830100
     10 N1           0.3860    -0.8280    -0.0180 nb         1 E1T      -0.621000
     11 N2          -1.7910    -1.5340    -0.0420 nb         1 E1T      -0.635000
     12 O1           3.5670     0.6800    -0.0750 o          1 E1T      -0.793800
     13 O2           3.0160    -1.4860     0.0800 o          1 E1T      -0.793800
     14 H1          -0.6760     2.8990     0.0180 ha         1 E1T       0.112000
     15 H2          -3.1190     2.1130    -0.0290 ha         1 E1T       0.117000
     16 H3           1.7300     2.2330     0.0110 ha         1 E1T       0.162000
     17 H4          -4.6830     0.1700    -0.0620 ha         1 E1T       0.120000
     18 H5          -3.7440    -2.1190    -0.0640 h4         1 E1T      -0.000900
@<TRIPOS>BOND
     1     1     2 ar  
     2     1     3 ar  
     3     1     5 ar  
     4     2    10 ar  
     5     2    11 ar  
     6     3     6 ar  
     7     3    14 1   
     8     4     6 ar  
     9     4     9 1   
    10     4    10 ar  
    11     5     7 ar  
    12     5    15 1   
    13     6    16 1   
    14     7     8 ar  
    15     7    17 1   
    16     8    11 ar  
    17     8    18 1   
    18     9    12 1   
    19     9    13 1   
@<TRIPOS>SUBSTRUCTURE
     1 E1T         1 TEMP              0 ****  ****    0 ROOT
