@<TRIPOS>MOLECULE
E1T
   18    19     1     0     0
SMALL
No Charge or Current Charge


@<TRIPOS>ATOM
      1 C1          -1.3520     0.7960    -0.0230 ca         1 E1T      -0.144000
      2 C2          -0.9160    -0.5600    -0.0250 ca         1 E1T       0.043000
      3 C3          -0.4100     1.8360    -0.0100 ca         1 E1T      -0.114000
      4 C4           1.3330     0.1500    -0.0040 ca         1 E1T       0.042500
      5 C5          -2.7260     1.0960    -0.0320 ca         1 E1T      -0.056000
      6 C6           0.9520     1.5100    -0.0010 ca         1 E1T      -0.116000
      7 C7          -3.6410     0.0370    -0.0440 ca         1 E1T      -0.205000
      8 C8          -3.1450    -1.2740    -0.0460 ca         1 E1T       0.070900
      9 C9           2.8070    -0.2500     0.0060 c          1 E1T       0.619500
     10 N1           0.4080    -0.8420    -0.0160 nb         1 E1T      -0.095000
     11 N2          -1.8280    -1.5610    -0.0370 nb         1 E1T      -0.109000
     12 O1           3.6540     0.6330     0.0170 o          1 E1T      -0.688500
     13 O2           3.0980    -1.4400     0.0030 o          1 E1T      -0.688500
     14 H1          -0.7240     2.8780    -0.0080 ha         1 E1T       0.094000
     15 H2          -3.0760     2.1270    -0.0300 ha         1 E1T       0.099000
     16 H3           1.7000     2.2990     0.0080 ha         1 E1T       0.144000
     17 H4          -4.7120     0.2250    -0.0520 ha         1 E1T       0.102000
     18 H5          -3.8240    -2.1250    -0.0550 h4         1 E1T      -0.000900
@<TRIPOS>BOND
     1     1     2 ar  
     2     1     3 ar  
     3     1     5 ar  
     4     2    10 ar  
     5     2    11 ar  
     6     3     6 ar  
     7     3    14 1   
     8     4     6 ar  
     9     4     9 1   
    10     4    10 ar  
    11     5     7 ar  
    12     5    15 1   
    13     6    16 1   
    14     7     8 ar  
    15     7    17 1   
    16     8    11 ar  
    17     8    18 1   
    18     9    12 1   
    19     9    13 1   
@<TRIPOS>SUBSTRUCTURE
     1 E1T         1 TEMP              0 ****  ****    0 ROOT
