@<TRIPOS>MOLECULE
E1V
   53    56     1     0     0
SMALL
No Charge or Current Charge


@<TRIPOS>ATOM
      1 C11          5.2560    21.1920    10.5030 cp         1 E1V       0.019000
      2 C12          4.0920    20.7460    11.1730 ca         1 E1V      -0.162000
      3 C13          4.0250    20.7840    12.5750 ca         1 E1V       0.333900
      4 C24          7.5320    24.7220     2.9910 c6         1 E1V      -0.071900
      5 C25          9.0610    24.4450     2.9430 c6         1 E1V      -0.074400
      6 C26          9.3760    23.1450     2.1700 c6         1 E1V      -0.071900
      7 C27          8.7140    21.9000     2.8300 c6         1 E1V      -0.069900
      8 C23          6.6710    23.4270     3.0420 c6         1 E1V      -0.069900
      9 C10          5.3700    21.1680     9.0100 cp         1 E1V      -0.084000
     10 C15          6.1570    21.6680    12.7250 ca         1 E1V       0.333900
     11 C22          7.4480    22.2400     3.6770 c6         1 E1V      -0.079700
     12 C01          0.9650    20.4130     1.5820 c3         1 E1V      -0.123100
     13 C02          1.2250    21.8440     2.0950 c3         1 E1V       0.169600
     14 C06          4.0680    21.3950     4.4880 cc         1 E1V      -0.133300
     15 C07          3.4390    21.5040     5.7260 cd         1 E1V      -0.153200
     16 C08          4.3860    21.3350     6.7970 ca         1 E1V      -0.129800
     17 C09          4.2250    21.3650     8.1870 ca         1 E1V      -0.027000
     18 C16          6.3060    21.6620    11.3280 ca         1 E1V      -0.162000
     19 C17          6.6290    20.9490     8.3710 ca         1 E1V      -0.067000
     20 C18          6.7520    20.9240     6.9650 ca         1 E1V      -0.131000
     21 C19          5.5940    21.1240     6.1980 ca         1 E1V      -0.026200
     22 N14          5.0380    21.2370    13.3480 nb         1 E1V      -0.666000
     23 N20          5.4260    21.1550     4.8150 na         1 E1V      -0.052700
     24 O03          2.0330    21.7730     3.2860 os         1 E1V      -0.439100
     25 O05          3.9570    21.4260     2.1000 o          1 E1V      -0.499000
     26 H121         3.2450    20.3570    10.6170 ha         1 E1V       0.123000
     27 H131         3.1340    20.4380    13.0970 h4         1 E1V       0.017100
     28 H242         7.3120    25.3480     3.8670 hc         1 E1V       0.039700
     29 H241         7.2340    25.3130     2.1140 hc         1 E1V       0.039700
     30 H251         9.4550    24.3620     3.9660 hc         1 E1V       0.038200
     31 H252         9.5810    25.2970     2.4830 hc         1 E1V       0.038200
     32 H262        10.4620    22.9970     2.1000 hc         1 E1V       0.039700
     33 H261         9.0130    23.2470     1.1370 hc         1 E1V       0.039700
     34 H271         8.4600    21.1790     2.0390 hc         1 E1V       0.042950
     35 H272         9.4460    21.3930     3.4750 hc         1 E1V       0.042950
     36 H231         6.3600    23.1520     2.0250 hc         1 E1V       0.042950
     37 H232         5.7470    23.6330     3.5990 hc         1 E1V       0.042950
     38 H151         6.9590    22.0330    13.3650 h4         1 E1V       0.017100
     39 H221         7.7790    22.5520     4.6770 hc         1 E1V       0.055700
     40 H011         0.2810    20.4400     0.7260 hc         1 E1V       0.049367
     41 H012         1.8930    19.9290     1.2570 hc         1 E1V       0.049367
     42 H013         0.5060    19.8000     2.3660 hc         1 E1V       0.049367
     43 H021         1.7060    22.4520     1.3160 h1         1 E1V       0.060700
     44 H022         0.2590    22.3100     2.3290 h1         1 E1V       0.060700
     45 H071         2.3760    21.6930     5.8620 ha         1 E1V       0.218000
     46 H091         3.2450    21.5500     8.6190 ha         1 E1V       0.120000
     47 H161         7.2280    22.0360    10.8960 ha         1 E1V       0.123000
     48 H171         7.5200    20.7810     8.9730 ha         1 E1V       0.114000
     49 H181         7.7190    20.7540     6.5000 ha         1 E1V       0.120000
     50 H212         6.1880    20.6330     2.9210 h1         1 E1V       0.073200
     51 H211         7.1970    20.1680     4.2840 h1         1 E1V       0.073200
     52 C04          3.3810    21.5240     3.1760 c          1 E1V       0.632300
     53 C21          6.5640    20.9750     3.8920 c3         1 E1V       0.069600
@<TRIPOS>BOND
     1     1     2 ar  
     2     1     9 1   
     3     1    18 ar  
     4     2     3 ar  
     5     2    26 1   
     6     3    22 ar  
     7     3    27 1   
     8     4     5 1   
     9     4     8 1   
    10     4    28 1   
    11     4    29 1   
    12     5     6 1   
    13     5    30 1   
    14     5    31 1   
    15     6     7 1   
    16     6    32 1   
    17     6    33 1   
    18     7    11 1   
    19     7    34 1   
    20     7    35 1   
    21     8    11 1   
    22     8    36 1   
    23     8    37 1   
    24     9    17 ar  
    25     9    19 ar  
    26    10    18 ar  
    27    10    22 ar  
    28    10    38 1   
    29    11    39 1   
    30    11    53 1   
    31    12    13 1   
    32    12    40 1   
    33    12    41 1   
    34    12    42 1   
    35    13    24 1   
    36    13    43 1   
    37    13    44 1   
    38    14    15 2   
    39    14    23 1   
    40    14    52 1   
    41    15    16 1   
    42    15    45 1   
    43    16    17 ar  
    44    16    21 ar  
    45    17    46 1   
    46    18    47 1   
    47    19    20 ar  
    48    19    48 1   
    49    20    21 ar  
    50    20    49 1   
    51    21    23 1   
    52    23    53 1   
    53    24    52 1   
    54    25    52 2   
    55    50    53 1   
    56    51    53 1   
@<TRIPOS>SUBSTRUCTURE
     1 E1V         1 TEMP              0 ****  ****    0 ROOT
