@<TRIPOS>MOLECULE
E1V
   53    56     1     0     0
SMALL
bcc


@<TRIPOS>ATOM
      1 C11          5.2870    21.2140    10.4100 cp         1 E1V       0.019000
      2 C12          4.1660    20.7440    11.0940 ca         1 E1V      -0.245300
      3 C13          4.1380    20.8010    12.4770 ca         1 E1V       0.399200
      4 C24          7.4630    24.6840     3.1270 c6         1 E1V      -0.071900
      5 C25          8.9690    24.3950     3.0460 c6         1 E1V      -0.074400
      6 C26          9.2280    23.1340     2.2320 c6         1 E1V      -0.071900
      7 C27          8.6290    21.9050     2.9300 c6         1 E1V      -0.069900
      8 C23          6.6200    23.4010     3.0870 c6         1 E1V      -0.069900
      9 C10          5.3630    21.1860     8.9380 cp         1 E1V      -0.084000
     10 C15          6.2020    21.7250    12.5700 ca         1 E1V       0.399200
     11 C22          7.3670    22.2440     3.7420 c6         1 E1V      -0.079700
     12 C01          0.9930    20.4640     1.5920 c3         1 E1V      -0.123100
     13 C02          1.4590    21.8310     2.0400 c3         1 E1V       0.146400
     14 C06          4.0750    21.3850     4.5500 cc         1 E1V      -0.133300
     15 C07          3.3890    21.5300     5.7300 cd         1 E1V      -0.103200
     16 C08          4.3270    21.3620     6.7780 ca         1 E1V      -0.129800
     17 C09          4.2290    21.3890     8.1720 ca         1 E1V      -0.045000
     18 C16          6.3280    21.7150    11.1910 ca         1 E1V      -0.245300
     19 C17          6.6030    20.9530     8.2960 ca         1 E1V      -0.085000
     20 C18          6.7280    20.9150     6.9280 ca         1 E1V      -0.149000
     21 C19          5.5740    21.1220     6.1650 ca         1 E1V      -0.026200
     22 N14          5.1310    21.2800    13.2180 nb         1 E1V      -0.666000
     23 N20          5.4090    21.1300     4.8130 na         1 E1V      -0.023400
     24 O03          2.2130    21.7740     3.2610 os         1 E1V      -0.415900
     25 O05          4.0840    21.2140     2.1710 o          1 E1V      -0.548000
     26 H121         3.3250    20.3160    10.5640 ha         1 E1V       0.141000
     27 H131         3.2680    20.4320    13.0110 h4         1 E1V       0.017100
     28 H242         7.2470    25.2390     4.0430 hc         1 E1V       0.039700
     29 H241         7.1650    25.3330     2.3000 hc         1 E1V       0.039700
     30 H251         9.3800    24.2600     4.0510 hc         1 E1V       0.038200
     31 H252         9.4940    25.2500     2.6160 hc         1 E1V       0.038200
     32 H262        10.2970    22.9870     2.0700 hc         1 E1V       0.039700
     33 H261         8.7840    23.2540     1.2390 hc         1 E1V       0.039700
     34 H271         8.3920    21.1430     2.1800 hc         1 E1V       0.042950
     35 H272         9.3690    21.4550     3.5960 hc         1 E1V       0.042950
     36 H231         6.3900    23.1290     2.0530 hc         1 E1V       0.042950
     37 H232         5.6600    23.5820     3.5770 hc         1 E1V       0.042950
     38 H151         7.0080    22.1190    13.1790 h4         1 E1V       0.017100
     39 H221         7.6760    22.5660     4.7430 hc         1 E1V       0.055700
     40 H011         0.3480    20.5770     0.7200 hc         1 E1V       0.049367
     41 H012         1.8230    19.8180     1.3090 hc         1 E1V       0.049367
     42 H013         0.4140    19.9680     2.3710 hc         1 E1V       0.049367
     43 H021         2.0420    22.3250     1.2610 h1         1 E1V       0.060700
     44 H022         0.6090    22.4680     2.2780 h1         1 E1V       0.060700
     45 H071         2.3340    21.7210     5.8350 ha         1 E1V       0.168000
     46 H091         3.2720    21.5900     8.6390 ha         1 E1V       0.138000
     47 H161         7.2260    22.1170    10.7380 ha         1 E1V       0.141000
     48 H171         7.4840    20.7750     8.8990 ha         1 E1V       0.132000
     49 H181         7.6910    20.7240     6.4730 ha         1 E1V       0.138000
     50 H212         6.1510    20.6570     2.9290 h1         1 E1V       0.073200
     51 H211         7.1510    20.1680     4.2770 h1         1 E1V       0.073200
     52 C04          3.4940    21.4410     3.2010 c          1 E1V       0.681300
     53 C21          6.5270    20.9790     3.8950 c3         1 E1V       0.040300
@<TRIPOS>BOND
     1     1     2 ar  
     2     1     9 1   
     3     1    18 ar  
     4     2     3 ar  
     5     2    26 1   
     6     3    22 ar  
     7     3    27 1   
     8     4     5 1   
     9     4     8 1   
    10     4    28 1   
    11     4    29 1   
    12     5     6 1   
    13     5    30 1   
    14     5    31 1   
    15     6     7 1   
    16     6    32 1   
    17     6    33 1   
    18     7    11 1   
    19     7    34 1   
    20     7    35 1   
    21     8    11 1   
    22     8    36 1   
    23     8    37 1   
    24     9    17 ar  
    25     9    19 ar  
    26    10    18 ar  
    27    10    22 ar  
    28    10    38 1   
    29    11    39 1   
    30    11    53 1   
    31    12    13 1   
    32    12    40 1   
    33    12    41 1   
    34    12    42 1   
    35    13    24 1   
    36    13    43 1   
    37    13    44 1   
    38    14    15 2   
    39    14    23 1   
    40    14    52 1   
    41    15    16 1   
    42    15    45 1   
    43    16    17 ar  
    44    16    21 ar  
    45    17    46 1   
    46    18    47 1   
    47    19    20 ar  
    48    19    48 1   
    49    20    21 ar  
    50    20    49 1   
    51    21    23 1   
    52    23    53 1   
    53    24    52 1   
    54    25    52 2   
    55    50    53 1   
    56    51    53 1   
@<TRIPOS>SUBSTRUCTURE
     1 E1V         1 TEMP              0 ****  ****    0 ROOT
