@<TRIPOS>MOLECULE
E1W
   32    34     1     0     0
SMALL
No Charge or Current Charge


@<TRIPOS>ATOM
      1 C17         -1.8500     1.8170    -0.5670 c          1 E1W       0.539000
      2 C01          4.3300     0.4590     1.2860 c3         1 E1W      -0.048800
      3 C02          2.9290     0.4970     0.6830 ca         1 E1W      -0.037300
      4 C03          2.0120     1.4590     1.1280 ca         1 E1W      -0.108000
      5 C04          0.7210     1.5010     0.5950 ca         1 E1W       0.095100
      6 C05          0.2620     0.5130    -0.3170 ca         1 E1W      -0.102000
      7 C06          1.2520    -0.3160    -0.9300 ca         1 E1W      -0.039300
      8 C07          0.9780    -1.1130    -2.2120 c3         1 E1W      -0.053800
      9 C08          2.5590    -0.3620    -0.3750 ca         1 E1W       0.109000
     10 C11         -1.9290    -0.6210    -1.0180 c3         1 E1W       0.072700
     11 C12         -2.6470    -1.1080     0.2180 cc         1 E1W       0.348800
     12 C19         -1.0220     2.9970    -0.0550 c6         1 E1W       0.074600
     13 N10         -1.1250     0.6160    -0.7650 n          1 E1W      -0.211400
     14 N13         -3.8020    -0.6020     0.7390 na         1 E1W      -0.195700
     15 N14         -4.1670    -1.2920     1.8470 nc         1 E1W      -0.198800
     16 N15         -3.2420    -2.2040     1.9800 nd         1 E1W      -0.046000
     17 N16         -2.2920    -2.1160     0.9890 nd         1 E1W      -0.374000
     18 O18         -3.0700     1.8880    -0.6910 o          1 E1W      -0.544000
     19 O20         -0.0990     2.5460     0.9600 os         1 E1W      -0.319100
     20 Cl           3.7670    -1.4920    -1.0150 cl         1 E1W      -0.196000
     21 H011         5.0890     0.7190     0.5380 hc         1 E1W       0.054033
     22 H013         4.4360     1.1660     2.1180 hc         1 E1W       0.054033
     23 H012         4.5660    -0.5380     1.6760 hc         1 E1W       0.054033
     24 H031         2.3060     2.1970     1.8700 ha         1 E1W       0.139000
     25 H072         0.1610    -0.6810    -2.8000 hc         1 E1W       0.055033
     26 H071         1.8420    -1.1060    -2.8860 hc         1 E1W       0.055033
     27 H073         0.7410    -2.1600    -1.9900 hc         1 E1W       0.055033
     28 H111        -1.3060    -1.4470    -1.3580 h1         1 E1W       0.092700
     29 H112        -2.6640    -0.4250    -1.8090 h1         1 E1W       0.092700
     30 H191        -0.4650     3.4140    -0.9050 h1         1 E1W       0.090700
     31 H192        -1.6980     3.7560     0.3580 h1         1 E1W       0.090700
     32 H1          -4.3290     0.1910     0.3880 hn         1 E1W       0.401000
@<TRIPOS>BOND
     1     1    12 1   
     2     1    13 1   
     3     1    18 2   
     4     2     3 1   
     5     2    21 1   
     6     2    22 1   
     7     2    23 1   
     8     3     4 ar  
     9     3     9 ar  
    10     4     5 ar  
    11     4    24 1   
    12     5     6 ar  
    13     5    19 1   
    14     6     7 ar  
    15     6    13 1   
    16     7     8 1   
    17     7     9 ar  
    18     8    25 1   
    19     8    26 1   
    20     8    27 1   
    21     9    20 1   
    22    10    11 1   
    23    10    13 1   
    24    10    28 1   
    25    10    29 1   
    26    11    14 1   
    27    11    17 2   
    28    12    19 1   
    29    12    30 1   
    30    12    31 1   
    31    14    15 1   
    32    14    32 1   
    33    15    16 2   
    34    16    17 1   
@<TRIPOS>SUBSTRUCTURE
     1 E1W         1 TEMP              0 ****  ****    0 ROOT
