@<TRIPOS>MOLECULE
E1W
   32    34     1     0     0
SMALL
abcg2


@<TRIPOS>ATOM
      1 C17         -1.8190     1.7720    -0.6910 c          1 E1W       0.539000
      2 C01          4.1590     0.3520     1.3410 c3         1 E1W      -0.048800
      3 C02          2.8110     0.4520     0.6960 ca         1 E1W      -0.037300
      4 C03          1.8830     1.3800     1.1510 ca         1 E1W      -0.108000
      5 C04          0.6290     1.4500     0.5790 ca         1 E1W       0.095100
      6 C05          0.2550     0.5840    -0.4470 ca         1 E1W      -0.102000
      7 C06          1.2050    -0.2630    -1.0240 ca         1 E1W      -0.039300
      8 C07          0.9340    -1.0170    -2.2920 c3         1 E1W      -0.053800
      9 C08          2.4510    -0.3330    -0.3980 ca         1 E1W       0.109000
     10 C11         -1.8620    -0.6120    -1.0120 c3         1 E1W       0.072700
     11 C12         -2.4730    -1.0160     0.2850 cc         1 E1W       0.348800
     12 C19         -1.0210     2.9040    -0.0860 c6         1 E1W       0.074600
     13 N10         -1.0980     0.6250    -0.8620 n          1 E1W      -0.211400
     14 N13         -3.6470    -0.6090     0.7690 na         1 E1W      -0.195700
     15 N14         -3.8370    -1.1550     1.9540 nc         1 E1W      -0.198800
     16 N15         -2.8090    -1.8740     2.1890 nd         1 E1W      -0.046000
     17 N16         -1.9430    -1.8140     1.1780 nd         1 E1W      -0.374000
     18 O18         -3.0050     1.8470    -0.9420 o          1 E1W      -0.544000
     19 O20         -0.2540     2.3890     0.9920 os         1 E1W      -0.319100
     20 CL           3.6300    -1.4450    -1.0250 cl         1 E1W      -0.196000
     21 H011         4.9600     0.5660     0.6330 hc         1 E1W       0.054033
     22 H013         4.2420     1.0580     2.1660 hc         1 E1W       0.054033
     23 H012         4.3380    -0.6490     1.7360 hc         1 E1W       0.054033
     24 H031         2.1390     2.0520     1.9600 ha         1 E1W       0.139000
     25 H072         0.1070    -0.5790    -2.8480 hc         1 E1W       0.055033
     26 H071         1.8070    -0.9850    -2.9420 hc         1 E1W       0.055033
     27 H073         0.7090    -2.0710    -2.1150 hc         1 E1W       0.055033
     28 H111        -1.2110    -1.4150    -1.3370 h1         1 E1W       0.092700
     29 H112        -2.6220    -0.4820    -1.7790 h1         1 E1W       0.092700
     30 H191        -0.3770     3.3790    -0.8350 h1         1 E1W       0.090700
     31 H192        -1.7000     3.6500     0.3200 h1         1 E1W       0.090700
     32 H1          -4.3350     0.0110     0.3630 hn         1 E1W       0.401000
@<TRIPOS>BOND
     1     1    12 1   
     2     1    13 1   
     3     1    18 2   
     4     2     3 1   
     5     2    21 1   
     6     2    22 1   
     7     2    23 1   
     8     3     4 ar  
     9     3     9 ar  
    10     4     5 ar  
    11     4    24 1   
    12     5     6 ar  
    13     5    19 1   
    14     6     7 ar  
    15     6    13 1   
    16     7     8 1   
    17     7     9 ar  
    18     8    25 1   
    19     8    26 1   
    20     8    27 1   
    21     9    20 1   
    22    10    11 1   
    23    10    13 1   
    24    10    28 1   
    25    10    29 1   
    26    11    14 1   
    27    11    17 2   
    28    12    19 1   
    29    12    30 1   
    30    12    31 1   
    31    14    15 1   
    32    14    32 1   
    33    15    16 2   
    34    16    17 1   
@<TRIPOS>SUBSTRUCTURE
     1 E1W         1 TEMP              0 ****  ****    0 ROOT
