@<TRIPOS>MOLECULE
E1Z
   44    44     1     0     0
SMALL
No Charge or Current Charge


@<TRIPOS>ATOM
      1 O1           7.4270     2.0770    -1.4480 oh         1 E1Z      -0.430100
      2 O2           6.2810    -0.1880    -0.2290 o          1 E1Z      -0.574100
      3 N1           6.0920     1.9990    -0.8900 ns         1 E1Z      -0.384400
      4 N2          -5.6220     1.4840    -0.2790 nh         1 E1Z      -0.824400
      5 C1          -2.1520    -0.9560     0.1020 ca         1 E1Z      -0.243600
      6 C2          -2.5960    -0.5330    -1.1660 ca         1 E1Z      -0.010000
      7 C3          -3.7390     0.2730    -1.2890 ca         1 E1Z      -0.218000
      8 C4          -4.4680     0.6700    -0.1530 ca         1 E1Z       0.373000
      9 C5          -4.0290     0.2360     1.1120 ca         1 E1Z      -0.218000
     10 C6          -2.8870    -0.5700     1.2440 ca         1 E1Z      -0.010000
     11 C7          -0.9180    -1.8220     0.2060 c          1 E1Z       0.598700
     12 C8          -0.0210    -1.7360     1.4660 c3         1 E1Z      -0.131500
     13 C9           1.4400    -1.4780     1.1060 c2         1 E1Z      -0.153200
     14 C10          1.9850    -0.3240     0.6460 ce         1 E1Z      -0.108200
     15 C11          3.4300    -0.2670     0.3450 ce         1 E1Z      -0.079000
     16 C12          4.1240     0.8110    -0.1320 cf         1 E1Z      -0.318200
     17 C13          5.5830     0.7990    -0.4130 c          1 E1Z       0.604300
     18 C14         -0.1870    -3.0020     2.3410 c3         1 E1Z      -0.082100
     19 C15          1.1750     0.9490     0.4120 c3         1 E1Z      -0.052900
     20 C17         -6.4590     1.4560    -1.5020 c3         1 E1Z       0.218100
     21 C16         -6.0420     2.4030     0.8050 c3         1 E1Z       0.218100
     22 H1           5.4480     2.7400    -1.1620 hn         1 E1Z       0.328500
     23 H171        -6.5050     0.4390    -1.9150 h1         1 E1Z       0.039533
     24 H172        -7.4880     1.7690    -1.2790 h1         1 E1Z       0.039533
     25 H173        -6.0490     2.1300    -2.2660 h1         1 E1Z       0.039533
     26 H161        -6.6540     1.8710     1.5460 h1         1 E1Z       0.039533
     27 H162        -5.1660     2.8300     1.3120 h1         1 E1Z       0.039533
     28 H163        -6.6310     3.2380     0.4030 h1         1 E1Z       0.039533
     29 H2          -2.0490    -0.8190    -2.0630 ha         1 E1Z       0.118000
     30 H6          -2.5960    -0.9040     2.2370 ha         1 E1Z       0.118000
     31 H3          -4.0460     0.5980    -2.2780 ha         1 E1Z       0.114500
     32 H5          -4.5820     0.5070     2.0050 ha         1 E1Z       0.114500
     33 H8          -0.3720    -0.9020     2.0820 hc         1 E1Z       0.066700
     34 H9           2.0800    -2.3520     1.2410 ha         1 E1Z       0.186000
     35 H141         0.4060    -2.9170     3.2600 hc         1 E1Z       0.043367
     36 H142        -1.2370    -3.1410     2.6260 hc         1 E1Z       0.043367
     37 H143         0.1420    -3.8980     1.8010 hc         1 E1Z       0.043367
     38 H11          3.9890    -1.1890     0.5260 ha         1 E1Z       0.197000
     39 H151         1.5620     1.7780     1.0150 hc         1 E1Z       0.041367
     40 H152         1.2180     1.2540    -0.6410 hc         1 E1Z       0.041367
     41 H153         0.1150     0.8430     0.6650 hc         1 E1Z       0.041367
     42 H12          3.6070     1.7480    -0.3260 ha         1 E1Z       0.178000
     43 HO1          7.8280     2.8490    -0.9820 ho         1 E1Z       0.446000
     44 O3          -0.6380    -2.5980    -0.7020 o          1 E1Z      -0.533100
@<TRIPOS>BOND
     1     1     3 1   
     2     1    43 1   
     3     2    17 2   
     4     3    17 1   
     5     3    22 1   
     6     4     8 1   
     7     4    20 1   
     8     4    21 1   
     9     5     6 ar  
    10     5    10 ar  
    11     5    11 1   
    12     6     7 ar  
    13     6    29 1   
    14     7     8 ar  
    15     7    31 1   
    16     8     9 ar  
    17     9    10 ar  
    18     9    32 1   
    19    10    30 1   
    20    11    12 1   
    21    11    44 2   
    22    12    13 1   
    23    12    18 1   
    24    12    33 1   
    25    13    14 2   
    26    13    34 1   
    27    14    15 1   
    28    14    19 1   
    29    15    16 2   
    30    15    38 1   
    31    16    17 1   
    32    16    42 1   
    33    18    35 1   
    34    18    36 1   
    35    18    37 1   
    36    19    39 1   
    37    19    40 1   
    38    19    41 1   
    39    20    23 1   
    40    20    24 1   
    41    20    25 1   
    42    21    26 1   
    43    21    27 1   
    44    21    28 1   
@<TRIPOS>SUBSTRUCTURE
     1 E1Z         1 TEMP              0 ****  ****    0 ROOT
