@<TRIPOS>MOLECULE
E1Z
   44    44     1     0     0
SMALL
bcc


@<TRIPOS>ATOM
      1 O1           8.2270     0.9490    -0.7940 oh         1 E1Z      -0.391100
      2 O2           6.3380    -0.9790    -0.6130 o          1 E1Z      -0.574100
      3 N1           6.9860     1.1640    -0.2760 ns         1 E1Z      -0.451400
      4 N2          -6.2660     0.8910    -0.1480 nh         1 E1Z      -0.686000
      5 C1          -2.2950    -0.4760    -0.2070 ca         1 E1Z      -0.243600
      6 C2          -3.1520    -0.6650    -1.2990 ca         1 E1Z      -0.028000
      7 C3          -4.4530    -0.2210    -1.2910 ca         1 E1Z      -0.236000
      8 C4          -4.9870     0.4490    -0.1650 ca         1 E1Z       0.234600
      9 C5          -4.1260     0.6350     0.9390 ca         1 E1Z      -0.236000
     10 C6          -2.8240     0.1860     0.9070 ca         1 E1Z      -0.028000
     11 C7          -0.9120    -0.9720    -0.2810 c          1 E1Z       0.598700
     12 C8          -0.0070    -0.8110     0.9370 c3         1 E1Z      -0.131500
     13 C9           1.4330    -0.8830     0.5420 c2         1 E1Z      -0.103200
     14 C10          2.3260     0.1190     0.5190 ce         1 E1Z      -0.108200
     15 C11          3.6920    -0.2190     0.1410 ce         1 E1Z      -0.029000
     16 C12          4.7170     0.6380     0.0680 cf         1 E1Z      -0.268200
     17 C13          6.0640     0.1740    -0.3200 c          1 E1Z       0.671300
     18 C14         -0.3280    -1.9250     1.9480 c3         1 E1Z      -0.082100
     19 C15          2.0240     1.5500     0.8450 c3         1 E1Z      -0.052900
     20 C17         -7.1220     0.6840    -1.2950 c3         1 E1Z       0.218100
     21 C16         -6.7920     1.5540     1.0250 c3         1 E1Z       0.218100
     22 H1           6.7160     2.1360    -0.2310 hn         1 E1Z       0.328500
     23 H171        -7.2500    -0.3760    -1.5260 h1         1 E1Z       0.039533
     24 H172        -8.1040     1.0980    -1.0890 h1         1 E1Z       0.039533
     25 H173        -6.7350     1.1800    -2.1890 h1         1 E1Z       0.039533
     26 H161        -6.7790     0.9040     1.9040 h1         1 E1Z       0.039533
     27 H162        -6.2350     2.4620     1.2680 h1         1 E1Z       0.039533
     28 H163        -7.8230     1.8410     0.8410 h1         1 E1Z       0.039533
     29 H2          -2.7860    -1.1730    -2.1820 ha         1 E1Z       0.136000
     30 H6          -2.2160     0.3640     1.7850 ha         1 E1Z       0.136000
     31 H3          -5.0640    -0.3960    -2.1660 ha         1 E1Z       0.132500
     32 H5          -4.4730     1.1370     1.8310 ha         1 E1Z       0.132500
     33 H8          -0.2180     0.1460     1.4150 hc         1 E1Z       0.066700
     34 H9           1.7870    -1.8730     0.2710 ha         1 E1Z       0.136000
     35 H141         0.2870    -1.8080     2.8400 hc         1 E1Z       0.043367
     36 H142        -1.3730    -1.9020     2.2550 hc         1 E1Z       0.043367
     37 H143        -0.1210    -2.9080     1.5220 hc         1 E1Z       0.043367
     38 H11          3.8780    -1.2630    -0.0950 ha         1 E1Z       0.147000
     39 H151         2.6300     1.8990     1.6840 hc         1 E1Z       0.041367
     40 H152         2.2540     2.1970    -0.0040 hc         1 E1Z       0.041367
     41 H153         0.9810     1.7150     1.1030 hc         1 E1Z       0.041367
     42 H12          4.5880     1.6910     0.2930 ha         1 E1Z       0.128000
     43 HO1          8.8040     0.7700    -0.0410 ho         1 E1Z       0.407000
     44 O3          -0.4920    -1.5280    -1.2800 o          1 E1Z      -0.533100
@<TRIPOS>BOND
     1     1     3 1   
     2     1    43 1   
     3     2    17 2   
     4     3    17 1   
     5     3    22 1   
     6     4     8 1   
     7     4    20 1   
     8     4    21 1   
     9     5     6 ar  
    10     5    10 ar  
    11     5    11 1   
    12     6     7 ar  
    13     6    29 1   
    14     7     8 ar  
    15     7    31 1   
    16     8     9 ar  
    17     9    10 ar  
    18     9    32 1   
    19    10    30 1   
    20    11    12 1   
    21    11    44 2   
    22    12    13 1   
    23    12    18 1   
    24    12    33 1   
    25    13    14 2   
    26    13    34 1   
    27    14    15 1   
    28    14    19 1   
    29    15    16 2   
    30    15    38 1   
    31    16    17 1   
    32    16    42 1   
    33    18    35 1   
    34    18    36 1   
    35    18    37 1   
    36    19    39 1   
    37    19    40 1   
    38    19    41 1   
    39    20    23 1   
    40    20    24 1   
    41    20    25 1   
    42    21    26 1   
    43    21    27 1   
    44    21    28 1   
@<TRIPOS>SUBSTRUCTURE
     1 E1Z         1 TEMP              0 ****  ****    0 ROOT
