@<TRIPOS>MOLECULE
E20
   57    60     1     0     0
SMALL
abcg2


@<TRIPOS>ATOM
      1 C1           0.4580    -0.2770     5.7980 ca         1 E20       0.092100
      2 C2          -0.9430    -0.2730     5.5350 ca         1 E20       0.147100
      3 C3          -1.4210    -0.1400     4.2410 ca         1 E20      -0.185000
      4 C4          -0.5110    -0.0060     3.1970 ca         1 E20      -0.039300
      5 C5           0.8440    -0.0070     3.4590 ca         1 E20      -0.196600
      6 C6           1.3490    -0.1390     4.7570 ca         1 E20      -0.103000
      7 C7           1.5890     0.1500     2.2110 c          1 E20       0.592700
      8 C8           0.5860     0.1120     1.0650 c5         1 E20      -0.168700
      9 C9          -0.7960     0.1820     1.7370 c5         1 E20      -0.030100
     10 C10          0.8280     1.1840     0.0080 c3         1 E20      -0.056400
     11 C11         -0.0690     1.0370    -1.2210 c6         1 E20      -0.062700
     12 C12         -0.0110     2.2800    -2.1040 c6         1 E20      -0.073400
     13 C13         -0.8670     2.1150    -3.3490 c6         1 E20       0.169800
     14 N14         -0.4560     0.9520    -4.1130 n3         1 E20      -0.723600
     15 C15         -0.5600    -0.2620    -3.3240 c6         1 E20       0.169800
     16 C16          0.2910    -0.1810    -2.0660 c6         1 E20      -0.073400
     17 C17         -1.1710     0.8410    -5.3640 c3         1 E20       0.217100
     18 C18         -0.5000    -0.0960    -6.3360 ca         1 E20      -0.087300
     19 C19         -1.2510    -0.9640    -7.1220 ca         1 E20      -0.099000
     20 C20         -0.6390    -1.7920    -8.0560 ca         1 E20      -0.114500
     21 C21          0.7400    -1.7650    -8.2100 ca         1 E20      -0.110000
     22 C22          1.5000    -0.9060    -7.4230 ca         1 E20      -0.114500
     23 C23          0.8840    -0.0800    -6.4940 ca         1 E20      -0.099000
     24 O24          2.7910     0.2720     2.0940 o          1 E20      -0.520100
     25 O25          0.7880    -0.4200     7.0930 os         1 E20      -0.321100
     26 C26          2.1620    -0.4340     7.4250 c3         1 E20       0.143900
     27 O27         -1.7130    -0.4060     6.6190 os         1 E20      -0.317100
     28 C28         -3.1200    -0.3700     6.4600 c3         1 E20       0.144900
     29 H3          -2.4840    -0.1360     4.0380 ha         1 E20       0.124000
     30 H6           2.4190    -0.1370     4.9180 ha         1 E20       0.138000
     31 H8           0.7090    -0.8800     0.6120 hc         1 E20       0.077700
     32 H91         -1.4910    -0.5660     1.3520 hc         1 E20       0.060200
     33 H92         -1.2600     1.1570     1.5640 hc         1 E20       0.060200
     34 H101         0.6570     2.1670     0.4600 hc         1 E20       0.054200
     35 H102         1.8750     1.1640    -0.3090 hc         1 E20       0.054200
     36 H11         -1.1080     0.9230    -0.8820 hc         1 E20       0.040700
     37 H121        -0.3520     3.1580    -1.5490 hc         1 E20       0.047700
     38 H122         1.0260     2.4710    -2.4020 hc         1 E20       0.047700
     39 H131        -1.9290     2.0530    -3.0520 h1         1 E20       0.031200
     40 H132        -0.7720     2.9990    -3.9850 h1         1 E20       0.031200
     41 H151        -1.6100    -0.4640    -3.0440 h1         1 E20       0.031200
     42 H152        -0.2310    -1.1080    -3.9310 h1         1 E20       0.031200
     43 H161         1.3470    -0.1220    -2.3510 hc         1 E20       0.047700
     44 H162         0.1670    -1.1070    -1.4990 hc         1 E20       0.047700
     45 H171        -2.2200     0.5310    -5.2230 h1         1 E20       0.036200
     46 H172        -1.2130     1.8370    -5.8180 h1         1 E20       0.036200
     47 H19         -2.3280    -0.9970    -7.0010 ha         1 E20       0.117500
     48 H20         -1.2410    -2.4610    -8.6570 ha         1 E20       0.111000
     49 H21          1.2220    -2.4090    -8.9340 ha         1 E20       0.111000
     50 H22          2.5770    -0.8810    -7.5350 ha         1 E20       0.111000
     51 H23          1.4790     0.5800    -5.8750 ha         1 E20       0.117500
     52 H261         2.2180    -0.5420     8.5050 h1         1 E20       0.042033
     53 H262         2.6850    -1.2740     6.9590 h1         1 E20       0.042033
     54 H263         2.6590     0.4950     7.1350 h1         1 E20       0.042033
     55 H281        -3.5430    -0.4570     7.4570 h1         1 E20       0.042700
     56 H282        -3.4520     0.5690     6.0130 h1         1 E20       0.042700
     57 H283        -3.4800    -1.2020     5.8490 h1         1 E20       0.042700
@<TRIPOS>BOND
     1     1     2 ar  
     2     1     6 ar  
     3     1    25 1   
     4     2     3 ar  
     5     2    27 1   
     6     3     4 ar  
     7     3    29 1   
     8     4     5 ar  
     9     4     9 1   
    10     5     6 ar  
    11     5     7 1   
    12     6    30 1   
    13     7     8 1   
    14     7    24 2   
    15     8     9 1   
    16     8    10 1   
    17     8    31 1   
    18     9    32 1   
    19     9    33 1   
    20    10    11 1   
    21    10    34 1   
    22    10    35 1   
    23    11    12 1   
    24    11    16 1   
    25    11    36 1   
    26    12    13 1   
    27    12    37 1   
    28    12    38 1   
    29    13    14 1   
    30    13    39 1   
    31    13    40 1   
    32    14    15 1   
    33    14    17 1   
    34    15    16 1   
    35    15    41 1   
    36    15    42 1   
    37    16    43 1   
    38    16    44 1   
    39    17    18 1   
    40    17    45 1   
    41    17    46 1   
    42    18    19 ar  
    43    18    23 ar  
    44    19    20 ar  
    45    19    47 1   
    46    20    21 ar  
    47    20    48 1   
    48    21    22 ar  
    49    21    49 1   
    50    22    23 ar  
    51    22    50 1   
    52    23    51 1   
    53    25    26 1   
    54    26    52 1   
    55    26    53 1   
    56    26    54 1   
    57    27    28 1   
    58    28    55 1   
    59    28    56 1   
    60    28    57 1   
@<TRIPOS>SUBSTRUCTURE
     1 E20         1 TEMP              0 ****  ****    0 ROOT
